* NGSPICE file created from cic_con.ext - technology: sky130A

* Black-box entry subcircuit for sky130_fd_sc_hd__fill_1 abstract view
.subckt sky130_fd_sc_hd__fill_1 VGND VNB VPB VPWR
.ends

* Black-box entry subcircuit for sky130_fd_sc_hd__dfxtp_1 abstract view
.subckt sky130_fd_sc_hd__dfxtp_1 CLK D VGND VNB VPB VPWR Q
.ends

* Black-box entry subcircuit for sky130_fd_sc_hd__decap_4 abstract view
.subckt sky130_fd_sc_hd__decap_4 VGND VNB VPB VPWR
.ends

* Black-box entry subcircuit for sky130_fd_sc_hd__decap_12 abstract view
.subckt sky130_fd_sc_hd__decap_12 VGND VNB VPB VPWR
.ends

* Black-box entry subcircuit for sky130_fd_sc_hd__or2_4 abstract view
.subckt sky130_fd_sc_hd__or2_4 A B VGND VNB VPB VPWR X
.ends

* Black-box entry subcircuit for sky130_fd_sc_hd__a22o_1 abstract view
.subckt sky130_fd_sc_hd__a22o_1 A1 A2 B1 B2 VGND VNB VPB VPWR X
.ends

* Black-box entry subcircuit for sky130_fd_sc_hd__decap_6 abstract view
.subckt sky130_fd_sc_hd__decap_6 VGND VNB VPB VPWR
.ends

* Black-box entry subcircuit for sky130_fd_sc_hd__mux4_1 abstract view
.subckt sky130_fd_sc_hd__mux4_1 A0 A1 A2 A3 S0 S1 VGND VNB VPB VPWR X
.ends

* Black-box entry subcircuit for sky130_fd_sc_hd__decap_8 abstract view
.subckt sky130_fd_sc_hd__decap_8 VGND VNB VPB VPWR
.ends

* Black-box entry subcircuit for sky130_fd_sc_hd__fill_2 abstract view
.subckt sky130_fd_sc_hd__fill_2 VGND VNB VPB VPWR
.ends

* Black-box entry subcircuit for sky130_fd_sc_hd__clkbuf_16 abstract view
.subckt sky130_fd_sc_hd__clkbuf_16 A VGND VNB VPB VPWR X
.ends

* Black-box entry subcircuit for sky130_fd_sc_hd__mux2_2 abstract view
.subckt sky130_fd_sc_hd__mux2_2 A0 A1 S VGND VNB VPB VPWR X
.ends

* Black-box entry subcircuit for sky130_fd_sc_hd__and2_1 abstract view
.subckt sky130_fd_sc_hd__and2_1 A B VGND VNB VPB VPWR X
.ends

* Black-box entry subcircuit for sky130_fd_sc_hd__mux2_1 abstract view
.subckt sky130_fd_sc_hd__mux2_1 A0 A1 S VGND VNB VPB VPWR X
.ends

* Black-box entry subcircuit for sky130_fd_sc_hd__tapvpwrvgnd_1 abstract view
.subckt sky130_fd_sc_hd__tapvpwrvgnd_1 VGND VPWR
.ends

* Black-box entry subcircuit for sky130_fd_sc_hd__inv_2 abstract view
.subckt sky130_fd_sc_hd__inv_2 A VGND VNB VPB VPWR Y
.ends

* Black-box entry subcircuit for sky130_fd_sc_hd__mux4_2 abstract view
.subckt sky130_fd_sc_hd__mux4_2 A0 A1 A2 A3 S0 S1 VGND VNB VPB VPWR X
.ends

* Black-box entry subcircuit for sky130_fd_sc_hd__buf_1 abstract view
.subckt sky130_fd_sc_hd__buf_1 A VGND VNB VPB VPWR X
.ends

* Black-box entry subcircuit for sky130_fd_sc_hd__diode_2 abstract view
.subckt sky130_fd_sc_hd__diode_2 DIODE VGND VNB VPB VPWR
.ends

* Black-box entry subcircuit for sky130_fd_sc_hd__clkbuf_2 abstract view
.subckt sky130_fd_sc_hd__clkbuf_2 A VGND VNB VPB VPWR X
.ends

* Black-box entry subcircuit for sky130_fd_sc_hd__decap_3 abstract view
.subckt sky130_fd_sc_hd__decap_3 VGND VNB VPB VPWR
.ends

* Black-box entry subcircuit for sky130_fd_sc_hd__dlymetal6s2s_1 abstract view
.subckt sky130_fd_sc_hd__dlymetal6s2s_1 A VGND VNB VPB VPWR X
.ends

* Black-box entry subcircuit for sky130_fd_sc_hd__buf_2 abstract view
.subckt sky130_fd_sc_hd__buf_2 A VGND VNB VPB VPWR X
.ends

* Black-box entry subcircuit for sky130_fd_sc_hd__or4_4 abstract view
.subckt sky130_fd_sc_hd__or4_4 A B C D VGND VNB VPB VPWR X
.ends

* Black-box entry subcircuit for sky130_fd_sc_hd__buf_8 abstract view
.subckt sky130_fd_sc_hd__buf_8 A VGND VNB VPB VPWR X
.ends

* Black-box entry subcircuit for sky130_fd_sc_hd__clkbuf_1 abstract view
.subckt sky130_fd_sc_hd__clkbuf_1 A VGND VNB VPB VPWR X
.ends

* Black-box entry subcircuit for sky130_fd_sc_hd__o221a_1 abstract view
.subckt sky130_fd_sc_hd__o221a_1 A1 A2 B1 B2 C1 VGND VNB VPB VPWR X
.ends

* Black-box entry subcircuit for sky130_fd_sc_hd__or3_1 abstract view
.subckt sky130_fd_sc_hd__or3_1 A B C VGND VNB VPB VPWR X
.ends

* Black-box entry subcircuit for sky130_fd_sc_hd__buf_6 abstract view
.subckt sky130_fd_sc_hd__buf_6 A VGND VNB VPB VPWR X
.ends

* Black-box entry subcircuit for sky130_fd_sc_hd__mux2_4 abstract view
.subckt sky130_fd_sc_hd__mux2_4 A0 A1 S VGND VNB VPB VPWR X
.ends

* Black-box entry subcircuit for sky130_fd_sc_hd__nand2_1 abstract view
.subckt sky130_fd_sc_hd__nand2_1 A B VGND VNB VPB VPWR Y
.ends

* Black-box entry subcircuit for sky130_fd_sc_hd__nor2_1 abstract view
.subckt sky130_fd_sc_hd__nor2_1 A B VGND VNB VPB VPWR Y
.ends

* Black-box entry subcircuit for sky130_fd_sc_hd__buf_12 abstract view
.subckt sky130_fd_sc_hd__buf_12 A VGND VNB VPB VPWR X
.ends

* Black-box entry subcircuit for sky130_fd_sc_hd__buf_4 abstract view
.subckt sky130_fd_sc_hd__buf_4 A VGND VNB VPB VPWR X
.ends

* Black-box entry subcircuit for sky130_fd_sc_hd__or3_4 abstract view
.subckt sky130_fd_sc_hd__or3_4 A B C VGND VNB VPB VPWR X
.ends

* Black-box entry subcircuit for sky130_fd_sc_hd__dfxtp_2 abstract view
.subckt sky130_fd_sc_hd__dfxtp_2 CLK D VGND VNB VPB VPWR Q
.ends

* Black-box entry subcircuit for sky130_fd_sc_hd__clkbuf_8 abstract view
.subckt sky130_fd_sc_hd__clkbuf_8 A VGND VNB VPB VPWR X
.ends

* Black-box entry subcircuit for sky130_fd_sc_hd__a21bo_1 abstract view
.subckt sky130_fd_sc_hd__a21bo_1 A1 A2 B1_N VGND VNB VPB VPWR X
.ends

* Black-box entry subcircuit for sky130_fd_sc_hd__or2_2 abstract view
.subckt sky130_fd_sc_hd__or2_2 A B VGND VNB VPB VPWR X
.ends

* Black-box entry subcircuit for sky130_fd_sc_hd__nor2_8 abstract view
.subckt sky130_fd_sc_hd__nor2_8 A B VGND VNB VPB VPWR Y
.ends

* Black-box entry subcircuit for sky130_fd_sc_hd__a221o_1 abstract view
.subckt sky130_fd_sc_hd__a221o_1 A1 A2 B1 B2 C1 VGND VNB VPB VPWR X
.ends

* Black-box entry subcircuit for sky130_fd_sc_hd__or2_1 abstract view
.subckt sky130_fd_sc_hd__or2_1 A B VGND VNB VPB VPWR X
.ends

* Black-box entry subcircuit for sky130_fd_sc_hd__clkbuf_4 abstract view
.subckt sky130_fd_sc_hd__clkbuf_4 A VGND VNB VPB VPWR X
.ends

* Black-box entry subcircuit for sky130_fd_sc_hd__nor2b_1 abstract view
.subckt sky130_fd_sc_hd__nor2b_1 A B_N VGND VNB VPB VPWR Y
.ends

* Black-box entry subcircuit for sky130_fd_sc_hd__or3b_4 abstract view
.subckt sky130_fd_sc_hd__or3b_4 A B C_N VGND VNB VPB VPWR X
.ends

* Black-box entry subcircuit for sky130_fd_sc_hd__o22a_1 abstract view
.subckt sky130_fd_sc_hd__o22a_1 A1 A2 B1 B2 VGND VNB VPB VPWR X
.ends

* Black-box entry subcircuit for sky130_fd_sc_hd__nor2b_2 abstract view
.subckt sky130_fd_sc_hd__nor2b_2 A B_N VGND VNB VPB VPWR Y
.ends

* Black-box entry subcircuit for sky130_fd_sc_hd__nor2b_4 abstract view
.subckt sky130_fd_sc_hd__nor2b_4 A B_N VGND VNB VPB VPWR Y
.ends

* Black-box entry subcircuit for sky130_fd_sc_hd__a21o_1 abstract view
.subckt sky130_fd_sc_hd__a21o_1 A1 A2 B1 VGND VNB VPB VPWR X
.ends

* Black-box entry subcircuit for sky130_fd_sc_hd__o21ai_1 abstract view
.subckt sky130_fd_sc_hd__o21ai_1 A1 A2 B1 VGND VNB VPB VPWR Y
.ends

* Black-box entry subcircuit for sky130_fd_sc_hd__nor2_2 abstract view
.subckt sky130_fd_sc_hd__nor2_2 A B VGND VNB VPB VPWR Y
.ends

* Black-box entry subcircuit for sky130_fd_sc_hd__a31o_4 abstract view
.subckt sky130_fd_sc_hd__a31o_4 A1 A2 A3 B1 VGND VNB VPB VPWR X
.ends

* Black-box entry subcircuit for sky130_fd_sc_hd__and3_1 abstract view
.subckt sky130_fd_sc_hd__and3_1 A B C VGND VNB VPB VPWR X
.ends

* Black-box entry subcircuit for sky130_fd_sc_hd__o211a_1 abstract view
.subckt sky130_fd_sc_hd__o211a_1 A1 A2 B1 C1 VGND VNB VPB VPWR X
.ends

* Black-box entry subcircuit for sky130_fd_sc_hd__dfxtp_4 abstract view
.subckt sky130_fd_sc_hd__dfxtp_4 CLK D VGND VNB VPB VPWR Q
.ends

* Black-box entry subcircuit for sky130_fd_sc_hd__a2bb2o_1 abstract view
.subckt sky130_fd_sc_hd__a2bb2o_1 A1_N A2_N B1 B2 VGND VNB VPB VPWR X
.ends

* Black-box entry subcircuit for sky130_fd_sc_hd__a2bb2oi_1 abstract view
.subckt sky130_fd_sc_hd__a2bb2oi_1 A1_N A2_N B1 B2 VGND VNB VPB VPWR Y
.ends

.subckt cic_con io_ack_o io_adr_i[0] io_adr_i[10] io_adr_i[11] io_adr_i[1] io_adr_i[2]
+ io_adr_i[3] io_adr_i[4] io_adr_i[5] io_adr_i[6] io_adr_i[7] io_adr_i[8] io_adr_i[9]
+ io_b_adr_i[0] io_b_adr_i[1] io_b_cs_i_0 io_b_cs_i_1 io_b_cs_i_10 io_b_cs_i_2 io_b_cs_i_3
+ io_b_cs_i_4 io_b_cs_i_5 io_b_cs_i_6 io_b_cs_i_7 io_b_cs_i_8 io_b_cs_i_9 io_b_dat_i[0]
+ io_b_dat_i[10] io_b_dat_i[11] io_b_dat_i[12] io_b_dat_i[13] io_b_dat_i[14] io_b_dat_i[15]
+ io_b_dat_i[1] io_b_dat_i[2] io_b_dat_i[3] io_b_dat_i[4] io_b_dat_i[5] io_b_dat_i[6]
+ io_b_dat_i[7] io_b_dat_i[8] io_b_dat_i[9] io_b_dat_o_0[0] io_b_dat_o_0[10] io_b_dat_o_0[11]
+ io_b_dat_o_0[12] io_b_dat_o_0[13] io_b_dat_o_0[14] io_b_dat_o_0[15] io_b_dat_o_0[1]
+ io_b_dat_o_0[2] io_b_dat_o_0[3] io_b_dat_o_0[4] io_b_dat_o_0[5] io_b_dat_o_0[6]
+ io_b_dat_o_0[7] io_b_dat_o_0[8] io_b_dat_o_0[9] io_b_dat_o_10[0] io_b_dat_o_10[10]
+ io_b_dat_o_10[11] io_b_dat_o_10[12] io_b_dat_o_10[13] io_b_dat_o_10[14] io_b_dat_o_10[15]
+ io_b_dat_o_10[1] io_b_dat_o_10[2] io_b_dat_o_10[3] io_b_dat_o_10[4] io_b_dat_o_10[5]
+ io_b_dat_o_10[6] io_b_dat_o_10[7] io_b_dat_o_10[8] io_b_dat_o_10[9] io_b_dat_o_1[0]
+ io_b_dat_o_1[10] io_b_dat_o_1[11] io_b_dat_o_1[12] io_b_dat_o_1[13] io_b_dat_o_1[14]
+ io_b_dat_o_1[15] io_b_dat_o_1[1] io_b_dat_o_1[2] io_b_dat_o_1[3] io_b_dat_o_1[4]
+ io_b_dat_o_1[5] io_b_dat_o_1[6] io_b_dat_o_1[7] io_b_dat_o_1[8] io_b_dat_o_1[9]
+ io_b_dat_o_2[0] io_b_dat_o_2[10] io_b_dat_o_2[11] io_b_dat_o_2[12] io_b_dat_o_2[13]
+ io_b_dat_o_2[14] io_b_dat_o_2[15] io_b_dat_o_2[1] io_b_dat_o_2[2] io_b_dat_o_2[3]
+ io_b_dat_o_2[4] io_b_dat_o_2[5] io_b_dat_o_2[6] io_b_dat_o_2[7] io_b_dat_o_2[8]
+ io_b_dat_o_2[9] io_b_dat_o_3[0] io_b_dat_o_3[10] io_b_dat_o_3[11] io_b_dat_o_3[12]
+ io_b_dat_o_3[13] io_b_dat_o_3[14] io_b_dat_o_3[15] io_b_dat_o_3[1] io_b_dat_o_3[2]
+ io_b_dat_o_3[3] io_b_dat_o_3[4] io_b_dat_o_3[5] io_b_dat_o_3[6] io_b_dat_o_3[7]
+ io_b_dat_o_3[8] io_b_dat_o_3[9] io_b_dat_o_4[0] io_b_dat_o_4[10] io_b_dat_o_4[11]
+ io_b_dat_o_4[12] io_b_dat_o_4[13] io_b_dat_o_4[14] io_b_dat_o_4[15] io_b_dat_o_4[1]
+ io_b_dat_o_4[2] io_b_dat_o_4[3] io_b_dat_o_4[4] io_b_dat_o_4[5] io_b_dat_o_4[6]
+ io_b_dat_o_4[7] io_b_dat_o_4[8] io_b_dat_o_4[9] io_b_dat_o_5[0] io_b_dat_o_5[10]
+ io_b_dat_o_5[11] io_b_dat_o_5[12] io_b_dat_o_5[13] io_b_dat_o_5[14] io_b_dat_o_5[15]
+ io_b_dat_o_5[1] io_b_dat_o_5[2] io_b_dat_o_5[3] io_b_dat_o_5[4] io_b_dat_o_5[5]
+ io_b_dat_o_5[6] io_b_dat_o_5[7] io_b_dat_o_5[8] io_b_dat_o_5[9] io_b_dat_o_6[0]
+ io_b_dat_o_6[10] io_b_dat_o_6[11] io_b_dat_o_6[12] io_b_dat_o_6[13] io_b_dat_o_6[14]
+ io_b_dat_o_6[15] io_b_dat_o_6[1] io_b_dat_o_6[2] io_b_dat_o_6[3] io_b_dat_o_6[4]
+ io_b_dat_o_6[5] io_b_dat_o_6[6] io_b_dat_o_6[7] io_b_dat_o_6[8] io_b_dat_o_6[9]
+ io_b_dat_o_7[0] io_b_dat_o_7[10] io_b_dat_o_7[11] io_b_dat_o_7[12] io_b_dat_o_7[13]
+ io_b_dat_o_7[14] io_b_dat_o_7[15] io_b_dat_o_7[1] io_b_dat_o_7[2] io_b_dat_o_7[3]
+ io_b_dat_o_7[4] io_b_dat_o_7[5] io_b_dat_o_7[6] io_b_dat_o_7[7] io_b_dat_o_7[8]
+ io_b_dat_o_7[9] io_b_dat_o_8[0] io_b_dat_o_8[10] io_b_dat_o_8[11] io_b_dat_o_8[12]
+ io_b_dat_o_8[13] io_b_dat_o_8[14] io_b_dat_o_8[15] io_b_dat_o_8[1] io_b_dat_o_8[2]
+ io_b_dat_o_8[3] io_b_dat_o_8[4] io_b_dat_o_8[5] io_b_dat_o_8[6] io_b_dat_o_8[7]
+ io_b_dat_o_8[8] io_b_dat_o_8[9] io_b_dat_o_9[0] io_b_dat_o_9[10] io_b_dat_o_9[11]
+ io_b_dat_o_9[12] io_b_dat_o_9[13] io_b_dat_o_9[14] io_b_dat_o_9[15] io_b_dat_o_9[1]
+ io_b_dat_o_9[2] io_b_dat_o_9[3] io_b_dat_o_9[4] io_b_dat_o_9[5] io_b_dat_o_9[6]
+ io_b_dat_o_9[7] io_b_dat_o_9[8] io_b_dat_o_9[9] io_b_we_i io_cs_i io_dat_i[0] io_dat_i[10]
+ io_dat_i[11] io_dat_i[12] io_dat_i[13] io_dat_i[14] io_dat_i[15] io_dat_i[16] io_dat_i[17]
+ io_dat_i[18] io_dat_i[19] io_dat_i[1] io_dat_i[20] io_dat_i[21] io_dat_i[22] io_dat_i[23]
+ io_dat_i[24] io_dat_i[25] io_dat_i[26] io_dat_i[27] io_dat_i[28] io_dat_i[29] io_dat_i[2]
+ io_dat_i[30] io_dat_i[31] io_dat_i[3] io_dat_i[4] io_dat_i[5] io_dat_i[6] io_dat_i[7]
+ io_dat_i[8] io_dat_i[9] io_dat_o[0] io_dat_o[10] io_dat_o[11] io_dat_o[12] io_dat_o[13]
+ io_dat_o[14] io_dat_o[15] io_dat_o[16] io_dat_o[17] io_dat_o[18] io_dat_o[19] io_dat_o[1]
+ io_dat_o[20] io_dat_o[21] io_dat_o[22] io_dat_o[23] io_dat_o[24] io_dat_o[25] io_dat_o[26]
+ io_dat_o[27] io_dat_o[28] io_dat_o[29] io_dat_o[2] io_dat_o[30] io_dat_o[31] io_dat_o[3]
+ io_dat_o[4] io_dat_o[5] io_dat_o[6] io_dat_o[7] io_dat_o[8] io_dat_o[9] io_dataLastBlock[0]
+ io_dataLastBlock[10] io_dataLastBlock[11] io_dataLastBlock[12] io_dataLastBlock[13]
+ io_dataLastBlock[14] io_dataLastBlock[15] io_dataLastBlock[16] io_dataLastBlock[17]
+ io_dataLastBlock[18] io_dataLastBlock[19] io_dataLastBlock[1] io_dataLastBlock[20]
+ io_dataLastBlock[21] io_dataLastBlock[22] io_dataLastBlock[23] io_dataLastBlock[24]
+ io_dataLastBlock[25] io_dataLastBlock[26] io_dataLastBlock[27] io_dataLastBlock[28]
+ io_dataLastBlock[29] io_dataLastBlock[2] io_dataLastBlock[30] io_dataLastBlock[31]
+ io_dataLastBlock[32] io_dataLastBlock[33] io_dataLastBlock[34] io_dataLastBlock[35]
+ io_dataLastBlock[36] io_dataLastBlock[37] io_dataLastBlock[38] io_dataLastBlock[39]
+ io_dataLastBlock[3] io_dataLastBlock[40] io_dataLastBlock[41] io_dataLastBlock[42]
+ io_dataLastBlock[43] io_dataLastBlock[44] io_dataLastBlock[45] io_dataLastBlock[46]
+ io_dataLastBlock[47] io_dataLastBlock[48] io_dataLastBlock[49] io_dataLastBlock[4]
+ io_dataLastBlock[50] io_dataLastBlock[51] io_dataLastBlock[52] io_dataLastBlock[53]
+ io_dataLastBlock[54] io_dataLastBlock[55] io_dataLastBlock[56] io_dataLastBlock[57]
+ io_dataLastBlock[58] io_dataLastBlock[59] io_dataLastBlock[5] io_dataLastBlock[60]
+ io_dataLastBlock[61] io_dataLastBlock[62] io_dataLastBlock[63] io_dataLastBlock[6]
+ io_dataLastBlock[7] io_dataLastBlock[8] io_dataLastBlock[9] io_dsi_in[0] io_dsi_in[1]
+ io_dsi_in[2] io_dsi_in[3] io_dsi_in[4] io_dsi_in[5] io_dsi_in[6] io_dsi_in[7] io_dsi_o
+ io_irq io_sync_out io_vout[0] io_vout[10] io_vout[1] io_vout[2] io_vout[3] io_vout[4]
+ io_vout[5] io_vout[6] io_vout[7] io_vout[8] io_vout[9] io_we_i wb_clk_i wb_rst_i
+ vccd1 vssd1
XFILLER_82_512 vssd1 vssd1 vccd1 vccd1 sky130_fd_sc_hd__fill_1
X_3155_ _3180_/CLK _3155_/D vssd1 vssd1 vccd1 vccd1 _3155_/Q sky130_fd_sc_hd__dfxtp_1
XFILLER_36_19 vssd1 vssd1 vccd1 vccd1 sky130_fd_sc_hd__decap_4
XFILLER_39_266 vssd1 vssd1 vccd1 vccd1 sky130_fd_sc_hd__decap_4
XFILLER_82_545 vssd1 vssd1 vccd1 vccd1 sky130_fd_sc_hd__decap_12
X_2106_ _2190_/A _2544_/A vssd1 vssd1 vccd1 vccd1 _2122_/A sky130_fd_sc_hd__or2_4
X_3086_ _3087_/CLK _3086_/D vssd1 vssd1 vccd1 vccd1 _3086_/Q sky130_fd_sc_hd__dfxtp_1
X_2037_ _3245_/Q _2031_/X _1967_/X _2033_/X vssd1 vssd1 vccd1 vccd1 _3245_/D sky130_fd_sc_hd__a22o_1
XFILLER_54_258 vssd1 vssd1 vccd1 vccd1 sky130_fd_sc_hd__decap_4
XFILLER_23_612 vssd1 vssd1 vccd1 vccd1 sky130_fd_sc_hd__decap_6
X_2939_ _3093_/Q _3069_/Q _3045_/Q _3349_/Q _1700_/A _1700_/B vssd1 vssd1 vccd1 vccd1
+ _2939_/X sky130_fd_sc_hd__mux4_1
XFILLER_89_144 vssd1 vssd1 vccd1 vccd1 sky130_fd_sc_hd__decap_4
XFILLER_77_306 vssd1 vssd1 vccd1 vccd1 sky130_fd_sc_hd__decap_8
XFILLER_73_501 vssd1 vssd1 vccd1 vccd1 sky130_fd_sc_hd__decap_4
XFILLER_93_47 vssd1 vssd1 vccd1 vccd1 sky130_fd_sc_hd__decap_4
XFILLER_93_25 vssd1 vssd1 vccd1 vccd1 sky130_fd_sc_hd__decap_4
XFILLER_85_394 vssd1 vssd1 vccd1 vccd1 sky130_fd_sc_hd__decap_4
XFILLER_85_372 vssd1 vssd1 vccd1 vccd1 sky130_fd_sc_hd__decap_4
XFILLER_45_214 vssd1 vssd1 vccd1 vccd1 sky130_fd_sc_hd__decap_4
XFILLER_45_225 vssd1 vssd1 vccd1 vccd1 sky130_fd_sc_hd__decap_4
XFILLER_45_236 vssd1 vssd1 vccd1 vccd1 sky130_fd_sc_hd__decap_4
XFILLER_73_567 vssd1 vssd1 vccd1 vccd1 sky130_fd_sc_hd__decap_12
XFILLER_45_258 vssd1 vssd1 vccd1 vccd1 sky130_fd_sc_hd__decap_4
XFILLER_14_623 vssd1 vssd1 vccd1 vccd1 sky130_fd_sc_hd__fill_2
XFILLER_13_144 vssd1 vssd1 vccd1 vccd1 sky130_fd_sc_hd__decap_6
XFILLER_41_464 vssd1 vssd1 vccd1 vccd1 sky130_fd_sc_hd__fill_1
XFILLER_13_188 vssd1 vssd1 vccd1 vccd1 sky130_fd_sc_hd__decap_4
XFILLER_41_486 vssd1 vssd1 vccd1 vccd1 sky130_fd_sc_hd__decap_12
XFILLER_5_310 vssd1 vssd1 vccd1 vccd1 sky130_fd_sc_hd__decap_4
XFILLER_3_78 vssd1 vssd1 vccd1 vccd1 sky130_fd_sc_hd__decap_8
XFILLER_49_520 vssd1 vssd1 vccd1 vccd1 sky130_fd_sc_hd__decap_4
XFILLER_49_531 vssd1 vssd1 vccd1 vccd1 sky130_fd_sc_hd__decap_8
Xclkbuf_leaf_60_wb_clk_i clkbuf_3_0_0_wb_clk_i/X vssd1 vssd1 vccd1 vccd1 _3301_/CLK
+ sky130_fd_sc_hd__clkbuf_16
XFILLER_64_512 vssd1 vssd1 vccd1 vccd1 sky130_fd_sc_hd__fill_1
XFILLER_36_203 vssd1 vssd1 vccd1 vccd1 sky130_fd_sc_hd__decap_4
XFILLER_49_586 vssd1 vssd1 vccd1 vccd1 sky130_fd_sc_hd__fill_2
XFILLER_91_342 vssd1 vssd1 vccd1 vccd1 sky130_fd_sc_hd__decap_4
XFILLER_91_364 vssd1 vssd1 vccd1 vccd1 sky130_fd_sc_hd__decap_6
XFILLER_32_420 vssd1 vssd1 vccd1 vccd1 sky130_fd_sc_hd__decap_6
X_2724_ _3144_/Q _3120_/Q _3192_/Q _3440_/Q _2750_/S0 _2751_/S1 vssd1 vssd1 vccd1
+ vccd1 _2724_/X sky130_fd_sc_hd__mux4_1
X_2655_ _2906_/X _2654_/X _2669_/S vssd1 vssd1 vccd1 vccd1 _2655_/X sky130_fd_sc_hd__mux2_2
X_1606_ _1609_/A _2961_/X vssd1 vssd1 vccd1 vccd1 _3460_/D sky130_fd_sc_hd__and2_1
X_2586_ _2585_/X _2493_/X _2595_/S vssd1 vssd1 vccd1 vccd1 _2586_/X sky130_fd_sc_hd__mux2_1
X_1537_ _1626_/D _1678_/D vssd1 vssd1 vccd1 vccd1 _1541_/A sky130_fd_sc_hd__or2_4
XFILLER_47_18 vssd1 vssd1 vccd1 vccd1 sky130_fd_sc_hd__decap_8
X_3207_ _3279_/CLK _3207_/D vssd1 vssd1 vccd1 vccd1 _3207_/Q sky130_fd_sc_hd__dfxtp_1
XFILLER_67_372 vssd1 vssd1 vccd1 vccd1 sky130_fd_sc_hd__decap_4
X_3138_ _3346_/CLK _3138_/D vssd1 vssd1 vccd1 vccd1 _3138_/Q sky130_fd_sc_hd__dfxtp_1
XFILLER_27_258 vssd1 vssd1 vccd1 vccd1 sky130_fd_sc_hd__decap_4
XFILLER_70_504 vssd1 vssd1 vccd1 vccd1 sky130_fd_sc_hd__decap_8
XFILLER_63_28 vssd1 vssd1 vccd1 vccd1 sky130_fd_sc_hd__fill_1
X_3069_ _3437_/CLK _3069_/D vssd1 vssd1 vccd1 vccd1 _3069_/Q sky130_fd_sc_hd__dfxtp_1
XFILLER_82_397 vssd1 vssd1 vccd1 vccd1 sky130_fd_sc_hd__fill_2
XFILLER_70_559 vssd1 vssd1 vccd1 vccd1 sky130_fd_sc_hd__decap_8
XPHY_927 vssd1 vccd1 sky130_fd_sc_hd__tapvpwrvgnd_1
XPHY_916 vssd1 vccd1 sky130_fd_sc_hd__tapvpwrvgnd_1
XPHY_905 vssd1 vccd1 sky130_fd_sc_hd__tapvpwrvgnd_1
XPHY_949 vssd1 vccd1 sky130_fd_sc_hd__tapvpwrvgnd_1
XPHY_938 vssd1 vccd1 sky130_fd_sc_hd__tapvpwrvgnd_1
XFILLER_23_486 vssd1 vssd1 vccd1 vccd1 sky130_fd_sc_hd__decap_4
XFILLER_12_21 vssd1 vssd1 vccd1 vccd1 sky130_fd_sc_hd__fill_1
XFILLER_88_58 vssd1 vssd1 vccd1 vccd1 sky130_fd_sc_hd__decap_4
XFILLER_88_47 vssd1 vssd1 vccd1 vccd1 sky130_fd_sc_hd__decap_8
XFILLER_14_420 vssd1 vssd1 vccd1 vccd1 sky130_fd_sc_hd__decap_8
X_2440_ _3414_/Q vssd1 vssd1 vccd1 vccd1 _2440_/Y sky130_fd_sc_hd__inv_2
XFILLER_68_103 vssd1 vssd1 vccd1 vccd1 sky130_fd_sc_hd__decap_4
X_2371_ _3037_/Q _2367_/X _2332_/X _2368_/X vssd1 vssd1 vccd1 vccd1 _3037_/D sky130_fd_sc_hd__a22o_1
XFILLER_84_618 vssd1 vssd1 vccd1 vccd1 sky130_fd_sc_hd__decap_6
XFILLER_83_139 vssd1 vssd1 vccd1 vccd1 sky130_fd_sc_hd__decap_4
XFILLER_37_523 vssd1 vssd1 vccd1 vccd1 sky130_fd_sc_hd__decap_12
XFILLER_49_361 vssd1 vssd1 vccd1 vccd1 sky130_fd_sc_hd__decap_8
XFILLER_49_372 vssd1 vssd1 vccd1 vccd1 sky130_fd_sc_hd__decap_4
XFILLER_17_280 vssd1 vssd1 vccd1 vccd1 sky130_fd_sc_hd__decap_4
XFILLER_20_412 vssd1 vssd1 vccd1 vccd1 sky130_fd_sc_hd__decap_8
XFILLER_20_489 vssd1 vssd1 vccd1 vccd1 sky130_fd_sc_hd__decap_12
X_2707_ _2703_/X _2704_/X _2705_/X _2706_/X _2752_/S0 _2837_/X vssd1 vssd1 vccd1 vccd1
+ _2707_/X sky130_fd_sc_hd__mux4_2
X_2638_ _2856_/X _2857_/X _2660_/S vssd1 vssd1 vccd1 vccd1 _2638_/X sky130_fd_sc_hd__mux2_1
X_2569_ _2569_/A vssd1 vssd1 vccd1 vccd1 _2569_/X sky130_fd_sc_hd__buf_1
XINSDIODE2_4 _2759_/X vssd1 vssd1 vccd1 vccd1 sky130_fd_sc_hd__diode_2
Xoutput297 _2556_/X vssd1 vssd1 vccd1 vccd1 io_b_adr_i[0] sky130_fd_sc_hd__clkbuf_2
XFILLER_75_618 vssd1 vssd1 vccd1 vccd1 sky130_fd_sc_hd__decap_6
XFILLER_47_309 vssd1 vssd1 vccd1 vccd1 sky130_fd_sc_hd__decap_4
XFILLER_67_180 vssd1 vssd1 vccd1 vccd1 sky130_fd_sc_hd__decap_8
XFILLER_82_161 vssd1 vssd1 vccd1 vccd1 sky130_fd_sc_hd__decap_8
XFILLER_82_172 vssd1 vssd1 vccd1 vccd1 sky130_fd_sc_hd__decap_12
XPHY_702 vssd1 vccd1 sky130_fd_sc_hd__tapvpwrvgnd_1
XPHY_713 vssd1 vccd1 sky130_fd_sc_hd__tapvpwrvgnd_1
XPHY_724 vssd1 vccd1 sky130_fd_sc_hd__tapvpwrvgnd_1
XPHY_735 vssd1 vccd1 sky130_fd_sc_hd__tapvpwrvgnd_1
XPHY_746 vssd1 vccd1 sky130_fd_sc_hd__tapvpwrvgnd_1
XPHY_757 vssd1 vccd1 sky130_fd_sc_hd__tapvpwrvgnd_1
XPHY_768 vssd1 vccd1 sky130_fd_sc_hd__tapvpwrvgnd_1
XFILLER_23_42 vssd1 vssd1 vccd1 vccd1 sky130_fd_sc_hd__decap_4
XFILLER_23_294 vssd1 vssd1 vccd1 vccd1 sky130_fd_sc_hd__decap_12
XPHY_779 vssd1 vccd1 sky130_fd_sc_hd__tapvpwrvgnd_1
XFILLER_3_600 vssd1 vssd1 vccd1 vccd1 sky130_fd_sc_hd__decap_12
XFILLER_2_110 vssd1 vssd1 vccd1 vccd1 sky130_fd_sc_hd__decap_4
XFILLER_78_412 vssd1 vssd1 vccd1 vccd1 sky130_fd_sc_hd__decap_12
XFILLER_46_331 vssd1 vssd1 vccd1 vccd1 sky130_fd_sc_hd__fill_2
XFILLER_0_46 vssd1 vssd1 vccd1 vccd1 sky130_fd_sc_hd__decap_4
XFILLER_64_82 vssd1 vssd1 vccd1 vccd1 sky130_fd_sc_hd__decap_6
XFILLER_34_548 vssd1 vssd1 vccd1 vccd1 sky130_fd_sc_hd__decap_12
XFILLER_61_356 vssd1 vssd1 vccd1 vccd1 sky130_fd_sc_hd__decap_4
XFILLER_61_367 vssd1 vssd1 vccd1 vccd1 sky130_fd_sc_hd__decap_4
XFILLER_14_283 vssd1 vssd1 vccd1 vccd1 sky130_fd_sc_hd__fill_2
X_1940_ _3304_/Q _1931_/X _1939_/X _1933_/X vssd1 vssd1 vccd1 vccd1 _3304_/D sky130_fd_sc_hd__a22o_1
XFILLER_9_77 vssd1 vssd1 vccd1 vccd1 sky130_fd_sc_hd__decap_8
X_1871_ _3345_/Q _1864_/A _1826_/X _1865_/A vssd1 vssd1 vccd1 vccd1 _3345_/D sky130_fd_sc_hd__a22o_1
XFILLER_80_70 vssd1 vssd1 vccd1 vccd1 sky130_fd_sc_hd__decap_12
X_3472_ _3500_/CLK _3472_/D vssd1 vssd1 vccd1 vccd1 _3472_/Q sky130_fd_sc_hd__dfxtp_1
X_2423_ _2430_/A _2611_/X vssd1 vssd1 vccd1 vccd1 _2423_/X sky130_fd_sc_hd__and2_1
X_2354_ _3050_/Q _2351_/X _2330_/X _2352_/X vssd1 vssd1 vccd1 vccd1 _3050_/D sky130_fd_sc_hd__a22o_1
XFILLER_84_404 vssd1 vssd1 vccd1 vccd1 sky130_fd_sc_hd__fill_1
XFILLER_57_618 vssd1 vssd1 vccd1 vccd1 sky130_fd_sc_hd__decap_6
XFILLER_84_426 vssd1 vssd1 vccd1 vccd1 sky130_fd_sc_hd__fill_1
X_2285_ _3093_/Q _2282_/X _2250_/X _2283_/X vssd1 vssd1 vccd1 vccd1 _3093_/D sky130_fd_sc_hd__a22o_1
XFILLER_37_364 vssd1 vssd1 vccd1 vccd1 sky130_fd_sc_hd__decap_6
XFILLER_64_172 vssd1 vssd1 vccd1 vccd1 sky130_fd_sc_hd__decap_4
XFILLER_52_312 vssd1 vssd1 vccd1 vccd1 sky130_fd_sc_hd__decap_3
XFILLER_52_356 vssd1 vssd1 vccd1 vccd1 sky130_fd_sc_hd__fill_1
XFILLER_20_286 vssd1 vssd1 vccd1 vccd1 sky130_fd_sc_hd__decap_12
XFILLER_75_415 vssd1 vssd1 vccd1 vccd1 sky130_fd_sc_hd__decap_12
XFILLER_47_128 vssd1 vssd1 vccd1 vccd1 sky130_fd_sc_hd__decap_12
XFILLER_75_459 vssd1 vssd1 vccd1 vccd1 sky130_fd_sc_hd__decap_4
XFILLER_18_31 vssd1 vssd1 vccd1 vccd1 sky130_fd_sc_hd__decap_12
XFILLER_18_53 vssd1 vssd1 vccd1 vccd1 sky130_fd_sc_hd__decap_4
XFILLER_90_407 vssd1 vssd1 vccd1 vccd1 sky130_fd_sc_hd__decap_4
XFILLER_83_481 vssd1 vssd1 vccd1 vccd1 sky130_fd_sc_hd__decap_4
XFILLER_71_621 vssd1 vssd1 vccd1 vccd1 sky130_fd_sc_hd__decap_4
XFILLER_70_142 vssd1 vssd1 vccd1 vccd1 sky130_fd_sc_hd__decap_12
XPHY_510 vssd1 vccd1 sky130_fd_sc_hd__tapvpwrvgnd_1
XFILLER_43_367 vssd1 vssd1 vccd1 vccd1 sky130_fd_sc_hd__decap_4
XPHY_521 vssd1 vccd1 sky130_fd_sc_hd__tapvpwrvgnd_1
XPHY_532 vssd1 vccd1 sky130_fd_sc_hd__tapvpwrvgnd_1
XFILLER_31_529 vssd1 vssd1 vccd1 vccd1 sky130_fd_sc_hd__decap_12
XPHY_543 vssd1 vccd1 sky130_fd_sc_hd__tapvpwrvgnd_1
XPHY_1131 vssd1 vccd1 sky130_fd_sc_hd__tapvpwrvgnd_1
XPHY_1120 vssd1 vccd1 sky130_fd_sc_hd__tapvpwrvgnd_1
XFILLER_34_96 vssd1 vssd1 vccd1 vccd1 sky130_fd_sc_hd__decap_4
XPHY_554 vssd1 vccd1 sky130_fd_sc_hd__tapvpwrvgnd_1
XPHY_565 vssd1 vccd1 sky130_fd_sc_hd__tapvpwrvgnd_1
XPHY_576 vssd1 vccd1 sky130_fd_sc_hd__tapvpwrvgnd_1
XPHY_587 vssd1 vccd1 sky130_fd_sc_hd__tapvpwrvgnd_1
XPHY_1175 vssd1 vccd1 sky130_fd_sc_hd__tapvpwrvgnd_1
XPHY_1164 vssd1 vccd1 sky130_fd_sc_hd__tapvpwrvgnd_1
XPHY_1153 vssd1 vccd1 sky130_fd_sc_hd__tapvpwrvgnd_1
XPHY_1142 vssd1 vccd1 sky130_fd_sc_hd__tapvpwrvgnd_1
XPHY_598 vssd1 vccd1 sky130_fd_sc_hd__tapvpwrvgnd_1
XPHY_1186 vssd1 vccd1 sky130_fd_sc_hd__tapvpwrvgnd_1
XFILLER_11_297 vssd1 vssd1 vccd1 vccd1 sky130_fd_sc_hd__decap_12
XFILLER_50_84 vssd1 vssd1 vccd1 vccd1 sky130_fd_sc_hd__decap_6
XFILLER_78_286 vssd1 vssd1 vccd1 vccd1 sky130_fd_sc_hd__decap_4
XFILLER_78_275 vssd1 vssd1 vccd1 vccd1 sky130_fd_sc_hd__fill_1
X_2070_ _3226_/Q _2063_/A _2053_/X _2064_/A vssd1 vssd1 vccd1 vccd1 _3226_/D sky130_fd_sc_hd__a22o_1
XFILLER_81_429 vssd1 vssd1 vccd1 vccd1 sky130_fd_sc_hd__decap_4
XFILLER_19_353 vssd1 vssd1 vccd1 vccd1 sky130_fd_sc_hd__decap_12
XFILLER_19_386 vssd1 vssd1 vccd1 vccd1 sky130_fd_sc_hd__decap_12
XFILLER_46_172 vssd1 vssd1 vccd1 vccd1 sky130_fd_sc_hd__decap_6
X_2972_ input21/X input53/X input69/X input85/X _2610_/S _2609_/S vssd1 vssd1 vccd1
+ vccd1 _2972_/X sky130_fd_sc_hd__mux4_1
XFILLER_22_518 vssd1 vssd1 vccd1 vccd1 sky130_fd_sc_hd__fill_1
XFILLER_91_80 vssd1 vssd1 vccd1 vccd1 sky130_fd_sc_hd__decap_6
X_1923_ _1943_/A vssd1 vssd1 vccd1 vccd1 _1945_/A sky130_fd_sc_hd__inv_2
XFILLER_30_562 vssd1 vssd1 vccd1 vccd1 sky130_fd_sc_hd__decap_8
X_1854_ _3358_/Q _1849_/X _1636_/X _1851_/X vssd1 vssd1 vccd1 vccd1 _3358_/D sky130_fd_sc_hd__a22o_1
X_1785_ _3392_/Q _1782_/X _1770_/X _1784_/X vssd1 vssd1 vccd1 vccd1 _3392_/D sky130_fd_sc_hd__a22o_1
X_3455_ _3455_/CLK _3455_/D vssd1 vssd1 vccd1 vccd1 _3455_/Q sky130_fd_sc_hd__dfxtp_1
X_2406_ _3008_/Q _1736_/X _2038_/A _1738_/X vssd1 vssd1 vccd1 vccd1 _3008_/D sky130_fd_sc_hd__a22o_1
X_3386_ _3420_/CLK _3386_/D vssd1 vssd1 vccd1 vccd1 _3386_/Q sky130_fd_sc_hd__dfxtp_1
X_2337_ _3059_/Q _2326_/X _2336_/X _2328_/X vssd1 vssd1 vccd1 vccd1 _3059_/D sky130_fd_sc_hd__a22o_1
X_2268_ _2282_/A vssd1 vssd1 vccd1 vccd1 _2283_/A sky130_fd_sc_hd__inv_2
XFILLER_25_312 vssd1 vssd1 vccd1 vccd1 sky130_fd_sc_hd__fill_2
X_2199_ _2206_/A vssd1 vssd1 vccd1 vccd1 _2199_/X sky130_fd_sc_hd__clkbuf_2
XFILLER_25_367 vssd1 vssd1 vccd1 vccd1 sky130_fd_sc_hd__decap_4
XFILLER_75_201 vssd1 vssd1 vccd1 vccd1 sky130_fd_sc_hd__decap_8
XFILLER_29_30 vssd1 vssd1 vccd1 vccd1 sky130_fd_sc_hd__decap_12
XFILLER_29_85 vssd1 vssd1 vccd1 vccd1 sky130_fd_sc_hd__fill_1
XFILLER_63_418 vssd1 vssd1 vccd1 vccd1 sky130_fd_sc_hd__decap_8
XFILLER_63_429 vssd1 vssd1 vccd1 vccd1 sky130_fd_sc_hd__decap_4
XFILLER_28_172 vssd1 vssd1 vccd1 vccd1 sky130_fd_sc_hd__decap_12
XFILLER_44_621 vssd1 vssd1 vccd1 vccd1 sky130_fd_sc_hd__decap_4
XFILLER_16_367 vssd1 vssd1 vccd1 vccd1 sky130_fd_sc_hd__decap_4
XFILLER_28_194 vssd1 vssd1 vccd1 vccd1 sky130_fd_sc_hd__decap_8
XFILLER_43_142 vssd1 vssd1 vccd1 vccd1 sky130_fd_sc_hd__fill_1
XFILLER_16_389 vssd1 vssd1 vccd1 vccd1 sky130_fd_sc_hd__decap_8
XFILLER_31_315 vssd1 vssd1 vccd1 vccd1 sky130_fd_sc_hd__decap_12
XFILLER_45_95 vssd1 vssd1 vccd1 vccd1 sky130_fd_sc_hd__fill_2
XPHY_351 vssd1 vccd1 sky130_fd_sc_hd__tapvpwrvgnd_1
XPHY_340 vssd1 vccd1 sky130_fd_sc_hd__tapvpwrvgnd_1
XFILLER_31_348 vssd1 vssd1 vccd1 vccd1 sky130_fd_sc_hd__decap_4
XFILLER_84_9 vssd1 vssd1 vccd1 vccd1 sky130_fd_sc_hd__fill_1
XPHY_362 vssd1 vccd1 sky130_fd_sc_hd__tapvpwrvgnd_1
XFILLER_12_551 vssd1 vssd1 vccd1 vccd1 sky130_fd_sc_hd__decap_12
XPHY_373 vssd1 vccd1 sky130_fd_sc_hd__tapvpwrvgnd_1
XPHY_384 vssd1 vccd1 sky130_fd_sc_hd__tapvpwrvgnd_1
XPHY_395 vssd1 vccd1 sky130_fd_sc_hd__tapvpwrvgnd_1
Xclkbuf_leaf_14_wb_clk_i clkbuf_3_2_0_wb_clk_i/X vssd1 vssd1 vccd1 vccd1 _3485_/CLK
+ sky130_fd_sc_hd__clkbuf_16
XFILLER_8_555 vssd1 vssd1 vccd1 vccd1 sky130_fd_sc_hd__decap_4
XFILLER_8_566 vssd1 vssd1 vccd1 vccd1 sky130_fd_sc_hd__decap_4
X_1570_ _1582_/A vssd1 vssd1 vccd1 vccd1 _1575_/A sky130_fd_sc_hd__dlymetal6s2s_1
X_3240_ _3307_/CLK _3240_/D vssd1 vssd1 vccd1 vccd1 _3240_/Q sky130_fd_sc_hd__dfxtp_1
X_3171_ _3335_/CLK _3171_/D vssd1 vssd1 vccd1 vccd1 _3171_/Q sky130_fd_sc_hd__dfxtp_1
XFILLER_39_426 vssd1 vssd1 vccd1 vccd1 sky130_fd_sc_hd__fill_2
XFILLER_13_3 vssd1 vssd1 vccd1 vccd1 sky130_fd_sc_hd__decap_4
X_2122_ _2122_/A vssd1 vssd1 vccd1 vccd1 _2122_/X sky130_fd_sc_hd__clkbuf_2
XFILLER_26_109 vssd1 vssd1 vccd1 vccd1 sky130_fd_sc_hd__decap_4
X_2053_ _2563_/A vssd1 vssd1 vccd1 vccd1 _2053_/X sky130_fd_sc_hd__buf_2
XFILLER_19_183 vssd1 vssd1 vccd1 vccd1 sky130_fd_sc_hd__decap_4
XFILLER_35_621 vssd1 vssd1 vccd1 vccd1 sky130_fd_sc_hd__decap_4
X_2955_ _3380_/Q _3416_/Q _3432_/Q _3428_/Q _2610_/S _1700_/B vssd1 vssd1 vccd1 vccd1
+ _2955_/X sky130_fd_sc_hd__mux4_2
X_2886_ input28/X input60/X input76/X input92/X _2594_/S _2595_/S vssd1 vssd1 vccd1
+ vccd1 _2886_/X sky130_fd_sc_hd__mux4_1
X_1906_ _1913_/A vssd1 vssd1 vccd1 vccd1 _1906_/X sky130_fd_sc_hd__clkbuf_2
X_1837_ _1837_/A vssd1 vssd1 vccd1 vccd1 _1837_/X sky130_fd_sc_hd__buf_2
X_3507_ _3509_/CLK _3507_/D vssd1 vssd1 vccd1 vccd1 _3507_/Q sky130_fd_sc_hd__dfxtp_1
X_1768_ _2224_/A _1798_/B _2224_/C _1828_/B vssd1 vssd1 vccd1 vccd1 _2377_/A sky130_fd_sc_hd__or4_4
XFILLER_89_315 vssd1 vssd1 vccd1 vccd1 sky130_fd_sc_hd__decap_4
X_1699_ _3425_/Q _1693_/X _1670_/X _1695_/X vssd1 vssd1 vccd1 vccd1 _3425_/D sky130_fd_sc_hd__a22o_1
XFILLER_1_208 vssd1 vssd1 vccd1 vccd1 sky130_fd_sc_hd__decap_4
X_3438_ _3438_/CLK _3438_/D vssd1 vssd1 vccd1 vccd1 _3438_/Q sky130_fd_sc_hd__dfxtp_1
X_3369_ _3371_/CLK _3369_/D vssd1 vssd1 vccd1 vccd1 _3369_/Q sky130_fd_sc_hd__dfxtp_1
XFILLER_57_201 vssd1 vssd1 vccd1 vccd1 sky130_fd_sc_hd__decap_4
XFILLER_85_543 vssd1 vssd1 vccd1 vccd1 sky130_fd_sc_hd__decap_12
XFILLER_85_565 vssd1 vssd1 vccd1 vccd1 sky130_fd_sc_hd__decap_4
XFILLER_17_109 vssd1 vssd1 vccd1 vccd1 sky130_fd_sc_hd__decap_8
XFILLER_45_407 vssd1 vssd1 vccd1 vccd1 sky130_fd_sc_hd__decap_8
Xrepeater383 _2992_/S1 vssd1 vssd1 vccd1 vccd1 _2997_/S1 sky130_fd_sc_hd__buf_8
XFILLER_45_429 vssd1 vssd1 vccd1 vccd1 sky130_fd_sc_hd__decap_8
Xrepeater394 _1700_/B vssd1 vssd1 vccd1 vccd1 _2611_/S sky130_fd_sc_hd__buf_8
XFILLER_13_315 vssd1 vssd1 vccd1 vccd1 sky130_fd_sc_hd__decap_12
XFILLER_41_624 vssd1 vssd1 vccd1 vccd1 sky130_fd_sc_hd__fill_1
XFILLER_53_484 vssd1 vssd1 vccd1 vccd1 sky130_fd_sc_hd__fill_1
XFILLER_80_281 vssd1 vssd1 vccd1 vccd1 sky130_fd_sc_hd__decap_4
XFILLER_40_134 vssd1 vssd1 vccd1 vccd1 sky130_fd_sc_hd__fill_1
XFILLER_15_87 vssd1 vssd1 vccd1 vccd1 sky130_fd_sc_hd__decap_12
XFILLER_21_392 vssd1 vssd1 vccd1 vccd1 sky130_fd_sc_hd__fill_2