* NGSPICE file created from cic_block.ext - technology: sky130A

* Black-box entry subcircuit for sky130_fd_sc_hd__fill_1 abstract view
.subckt sky130_fd_sc_hd__fill_1 VGND VNB VPB VPWR
.ends

* Black-box entry subcircuit for sky130_fd_sc_hd__dfxtp_4 abstract view
.subckt sky130_fd_sc_hd__dfxtp_4 CLK D VGND VNB VPB VPWR Q
.ends

* Black-box entry subcircuit for sky130_fd_sc_hd__dfxtp_1 abstract view
.subckt sky130_fd_sc_hd__dfxtp_1 CLK D VGND VNB VPB VPWR Q
.ends

* Black-box entry subcircuit for sky130_fd_sc_hd__mux2_1 abstract view
.subckt sky130_fd_sc_hd__mux2_1 A0 A1 S VGND VNB VPB VPWR X
.ends

* Black-box entry subcircuit for sky130_fd_sc_hd__decap_4 abstract view
.subckt sky130_fd_sc_hd__decap_4 VGND VNB VPB VPWR
.ends

* Black-box entry subcircuit for sky130_fd_sc_hd__a21oi_4 abstract view
.subckt sky130_fd_sc_hd__a21oi_4 A1 A2 B1 VGND VNB VPB VPWR Y
.ends

* Black-box entry subcircuit for sky130_fd_sc_hd__decap_8 abstract view
.subckt sky130_fd_sc_hd__decap_8 VGND VNB VPB VPWR
.ends

* Black-box entry subcircuit for sky130_fd_sc_hd__fill_2 abstract view
.subckt sky130_fd_sc_hd__fill_2 VGND VNB VPB VPWR
.ends

* Black-box entry subcircuit for sky130_fd_sc_hd__decap_12 abstract view
.subckt sky130_fd_sc_hd__decap_12 VGND VNB VPB VPWR
.ends

* Black-box entry subcircuit for sky130_fd_sc_hd__inv_2 abstract view
.subckt sky130_fd_sc_hd__inv_2 A VGND VNB VPB VPWR Y
.ends

* Black-box entry subcircuit for sky130_fd_sc_hd__nor3_2 abstract view
.subckt sky130_fd_sc_hd__nor3_2 A B C VGND VNB VPB VPWR Y
.ends

* Black-box entry subcircuit for sky130_fd_sc_hd__a211o_1 abstract view
.subckt sky130_fd_sc_hd__a211o_1 A1 A2 B1 C1 VGND VNB VPB VPWR X
.ends

* Black-box entry subcircuit for sky130_fd_sc_hd__clkbuf_2 abstract view
.subckt sky130_fd_sc_hd__clkbuf_2 A VGND VNB VPB VPWR X
.ends

* Black-box entry subcircuit for sky130_fd_sc_hd__nand2_1 abstract view
.subckt sky130_fd_sc_hd__nand2_1 A B VGND VNB VPB VPWR Y
.ends

* Black-box entry subcircuit for sky130_fd_sc_hd__dfxtp_2 abstract view
.subckt sky130_fd_sc_hd__dfxtp_2 CLK D VGND VNB VPB VPWR Q
.ends

* Black-box entry subcircuit for sky130_fd_sc_hd__decap_6 abstract view
.subckt sky130_fd_sc_hd__decap_6 VGND VNB VPB VPWR
.ends

* Black-box entry subcircuit for sky130_fd_sc_hd__nand3_2 abstract view
.subckt sky130_fd_sc_hd__nand3_2 A B C VGND VNB VPB VPWR Y
.ends

* Black-box entry subcircuit for sky130_fd_sc_hd__diode_2 abstract view
.subckt sky130_fd_sc_hd__diode_2 DIODE VGND VNB VPB VPWR
.ends

* Black-box entry subcircuit for sky130_fd_sc_hd__tapvpwrvgnd_1 abstract view
.subckt sky130_fd_sc_hd__tapvpwrvgnd_1 VGND VPWR
.ends

* Black-box entry subcircuit for sky130_fd_sc_hd__o31ai_2 abstract view
.subckt sky130_fd_sc_hd__o31ai_2 A1 A2 A3 B1 VGND VNB VPB VPWR Y
.ends

* Black-box entry subcircuit for sky130_fd_sc_hd__o2bb2ai_1 abstract view
.subckt sky130_fd_sc_hd__o2bb2ai_1 A1_N A2_N B1 B2 VGND VNB VPB VPWR Y
.ends

* Black-box entry subcircuit for sky130_fd_sc_hd__xor2_1 abstract view
.subckt sky130_fd_sc_hd__xor2_1 A B VGND VNB VPB VPWR X
.ends

* Black-box entry subcircuit for sky130_fd_sc_hd__nor2_1 abstract view
.subckt sky130_fd_sc_hd__nor2_1 A B VGND VNB VPB VPWR Y
.ends

* Black-box entry subcircuit for sky130_fd_sc_hd__o21bai_1 abstract view
.subckt sky130_fd_sc_hd__o21bai_1 A1 A2 B1_N VGND VNB VPB VPWR Y
.ends

* Black-box entry subcircuit for sky130_fd_sc_hd__decap_3 abstract view
.subckt sky130_fd_sc_hd__decap_3 VGND VNB VPB VPWR
.ends

* Black-box entry subcircuit for sky130_fd_sc_hd__mux2_2 abstract view
.subckt sky130_fd_sc_hd__mux2_2 A0 A1 S VGND VNB VPB VPWR X
.ends

* Black-box entry subcircuit for sky130_fd_sc_hd__nand3_4 abstract view
.subckt sky130_fd_sc_hd__nand3_4 A B C VGND VNB VPB VPWR Y
.ends

* Black-box entry subcircuit for sky130_fd_sc_hd__a21boi_1 abstract view
.subckt sky130_fd_sc_hd__a21boi_1 A1 A2 B1_N VGND VNB VPB VPWR Y
.ends

* Black-box entry subcircuit for sky130_fd_sc_hd__a21oi_1 abstract view
.subckt sky130_fd_sc_hd__a21oi_1 A1 A2 B1 VGND VNB VPB VPWR Y
.ends

* Black-box entry subcircuit for sky130_fd_sc_hd__clkbuf_1 abstract view
.subckt sky130_fd_sc_hd__clkbuf_1 A VGND VNB VPB VPWR X
.ends

* Black-box entry subcircuit for sky130_fd_sc_hd__buf_1 abstract view
.subckt sky130_fd_sc_hd__buf_1 A VGND VNB VPB VPWR X
.ends

* Black-box entry subcircuit for sky130_fd_sc_hd__o211a_1 abstract view
.subckt sky130_fd_sc_hd__o211a_1 A1 A2 B1 C1 VGND VNB VPB VPWR X
.ends

* Black-box entry subcircuit for sky130_fd_sc_hd__nor2_4 abstract view
.subckt sky130_fd_sc_hd__nor2_4 A B VGND VNB VPB VPWR Y
.ends

* Black-box entry subcircuit for sky130_fd_sc_hd__o21a_1 abstract view
.subckt sky130_fd_sc_hd__o21a_1 A1 A2 B1 VGND VNB VPB VPWR X
.ends

* Black-box entry subcircuit for sky130_fd_sc_hd__o21ai_1 abstract view
.subckt sky130_fd_sc_hd__o21ai_1 A1 A2 B1 VGND VNB VPB VPWR Y
.ends

* Black-box entry subcircuit for sky130_fd_sc_hd__and2b_1 abstract view
.subckt sky130_fd_sc_hd__and2b_1 A_N B VGND VNB VPB VPWR X
.ends

* Black-box entry subcircuit for sky130_fd_sc_hd__and2_1 abstract view
.subckt sky130_fd_sc_hd__and2_1 A B VGND VNB VPB VPWR X
.ends

* Black-box entry subcircuit for sky130_fd_sc_hd__nand3b_1 abstract view
.subckt sky130_fd_sc_hd__nand3b_1 A_N B C VGND VNB VPB VPWR Y
.ends

* Black-box entry subcircuit for sky130_fd_sc_hd__nor2b_4 abstract view
.subckt sky130_fd_sc_hd__nor2b_4 A B_N VGND VNB VPB VPWR Y
.ends

* Black-box entry subcircuit for sky130_fd_sc_hd__mux2_4 abstract view
.subckt sky130_fd_sc_hd__mux2_4 A0 A1 S VGND VNB VPB VPWR X
.ends

* Black-box entry subcircuit for sky130_fd_sc_hd__a211oi_1 abstract view
.subckt sky130_fd_sc_hd__a211oi_1 A1 A2 B1 C1 VGND VNB VPB VPWR Y
.ends

* Black-box entry subcircuit for sky130_fd_sc_hd__nand3_1 abstract view
.subckt sky130_fd_sc_hd__nand3_1 A B C VGND VNB VPB VPWR Y
.ends

* Black-box entry subcircuit for sky130_fd_sc_hd__buf_2 abstract view
.subckt sky130_fd_sc_hd__buf_2 A VGND VNB VPB VPWR X
.ends

* Black-box entry subcircuit for sky130_fd_sc_hd__xnor2_1 abstract view
.subckt sky130_fd_sc_hd__xnor2_1 A B VGND VNB VPB VPWR Y
.ends

* Black-box entry subcircuit for sky130_fd_sc_hd__o21ai_2 abstract view
.subckt sky130_fd_sc_hd__o21ai_2 A1 A2 B1 VGND VNB VPB VPWR Y
.ends

* Black-box entry subcircuit for sky130_fd_sc_hd__o21bai_4 abstract view
.subckt sky130_fd_sc_hd__o21bai_4 A1 A2 B1_N VGND VNB VPB VPWR Y
.ends

* Black-box entry subcircuit for sky130_fd_sc_hd__a211oi_4 abstract view
.subckt sky130_fd_sc_hd__a211oi_4 A1 A2 B1 C1 VGND VNB VPB VPWR Y
.ends

* Black-box entry subcircuit for sky130_fd_sc_hd__nand2_2 abstract view
.subckt sky130_fd_sc_hd__nand2_2 A B VGND VNB VPB VPWR Y
.ends

* Black-box entry subcircuit for sky130_fd_sc_hd__nor2_2 abstract view
.subckt sky130_fd_sc_hd__nor2_2 A B VGND VNB VPB VPWR Y
.ends

* Black-box entry subcircuit for sky130_fd_sc_hd__nor3_1 abstract view
.subckt sky130_fd_sc_hd__nor3_1 A B C VGND VNB VPB VPWR Y
.ends

* Black-box entry subcircuit for sky130_fd_sc_hd__nand3b_4 abstract view
.subckt sky130_fd_sc_hd__nand3b_4 A_N B C VGND VNB VPB VPWR Y
.ends

* Black-box entry subcircuit for sky130_fd_sc_hd__clkbuf_4 abstract view
.subckt sky130_fd_sc_hd__clkbuf_4 A VGND VNB VPB VPWR X
.ends

* Black-box entry subcircuit for sky130_fd_sc_hd__and3_1 abstract view
.subckt sky130_fd_sc_hd__and3_1 A B C VGND VNB VPB VPWR X
.ends

* Black-box entry subcircuit for sky130_fd_sc_hd__nand2b_2 abstract view
.subckt sky130_fd_sc_hd__nand2b_2 A_N B VGND VNB VPB VPWR Y
.ends

* Black-box entry subcircuit for sky130_fd_sc_hd__and2_2 abstract view
.subckt sky130_fd_sc_hd__and2_2 A B VGND VNB VPB VPWR X
.ends

* Black-box entry subcircuit for sky130_fd_sc_hd__nor3b_2 abstract view
.subckt sky130_fd_sc_hd__nor3b_2 A B C_N VGND VNB VPB VPWR Y
.ends

* Black-box entry subcircuit for sky130_fd_sc_hd__clkinv_4 abstract view
.subckt sky130_fd_sc_hd__clkinv_4 A VGND VNB VPB VPWR Y
.ends

* Black-box entry subcircuit for sky130_fd_sc_hd__o22ai_1 abstract view
.subckt sky130_fd_sc_hd__o22ai_1 A1 A2 B1 B2 VGND VNB VPB VPWR Y
.ends

* Black-box entry subcircuit for sky130_fd_sc_hd__o2111ai_4 abstract view
.subckt sky130_fd_sc_hd__o2111ai_4 A1 A2 B1 C1 D1 VGND VNB VPB VPWR Y
.ends

* Black-box entry subcircuit for sky130_fd_sc_hd__o31ai_1 abstract view
.subckt sky130_fd_sc_hd__o31ai_1 A1 A2 A3 B1 VGND VNB VPB VPWR Y
.ends

* Black-box entry subcircuit for sky130_fd_sc_hd__nand3b_2 abstract view
.subckt sky130_fd_sc_hd__nand3b_2 A_N B C VGND VNB VPB VPWR Y
.ends

* Black-box entry subcircuit for sky130_fd_sc_hd__a31oi_4 abstract view
.subckt sky130_fd_sc_hd__a31oi_4 A1 A2 A3 B1 VGND VNB VPB VPWR Y
.ends

* Black-box entry subcircuit for sky130_fd_sc_hd__xor2_4 abstract view
.subckt sky130_fd_sc_hd__xor2_4 A B VGND VNB VPB VPWR X
.ends

* Black-box entry subcircuit for sky130_fd_sc_hd__o21bai_2 abstract view
.subckt sky130_fd_sc_hd__o21bai_2 A1 A2 B1_N VGND VNB VPB VPWR Y
.ends

* Black-box entry subcircuit for sky130_fd_sc_hd__a31o_2 abstract view
.subckt sky130_fd_sc_hd__a31o_2 A1 A2 A3 B1 VGND VNB VPB VPWR X
.ends

* Black-box entry subcircuit for sky130_fd_sc_hd__nor2b_1 abstract view
.subckt sky130_fd_sc_hd__nor2b_1 A B_N VGND VNB VPB VPWR Y
.ends

* Black-box entry subcircuit for sky130_fd_sc_hd__mux2_8 abstract view
.subckt sky130_fd_sc_hd__mux2_8 A0 A1 S VGND VNB VPB VPWR X
.ends

* Black-box entry subcircuit for sky130_fd_sc_hd__a31oi_1 abstract view
.subckt sky130_fd_sc_hd__a31oi_1 A1 A2 A3 B1 VGND VNB VPB VPWR Y
.ends

* Black-box entry subcircuit for sky130_fd_sc_hd__a21o_1 abstract view
.subckt sky130_fd_sc_hd__a21o_1 A1 A2 B1 VGND VNB VPB VPWR X
.ends

* Black-box entry subcircuit for sky130_fd_sc_hd__xor2_2 abstract view
.subckt sky130_fd_sc_hd__xor2_2 A B VGND VNB VPB VPWR X
.ends

* Black-box entry subcircuit for sky130_fd_sc_hd__and2b_2 abstract view
.subckt sky130_fd_sc_hd__and2b_2 A_N B VGND VNB VPB VPWR X
.ends

* Black-box entry subcircuit for sky130_fd_sc_hd__mux4_2 abstract view
.subckt sky130_fd_sc_hd__mux4_2 A0 A1 A2 A3 S0 S1 VGND VNB VPB VPWR X
.ends

* Black-box entry subcircuit for sky130_fd_sc_hd__inv_4 abstract view
.subckt sky130_fd_sc_hd__inv_4 A VGND VNB VPB VPWR Y
.ends

* Black-box entry subcircuit for sky130_fd_sc_hd__xnor2_2 abstract view
.subckt sky130_fd_sc_hd__xnor2_2 A B VGND VNB VPB VPWR Y
.ends

* Black-box entry subcircuit for sky130_fd_sc_hd__a21boi_2 abstract view
.subckt sky130_fd_sc_hd__a21boi_2 A1 A2 B1_N VGND VNB VPB VPWR Y
.ends

* Black-box entry subcircuit for sky130_fd_sc_hd__a21oi_2 abstract view
.subckt sky130_fd_sc_hd__a21oi_2 A1 A2 B1 VGND VNB VPB VPWR Y
.ends

* Black-box entry subcircuit for sky130_fd_sc_hd__a31o_1 abstract view
.subckt sky130_fd_sc_hd__a31o_1 A1 A2 A3 B1 VGND VNB VPB VPWR X
.ends

* Black-box entry subcircuit for sky130_fd_sc_hd__buf_4 abstract view
.subckt sky130_fd_sc_hd__buf_4 A VGND VNB VPB VPWR X
.ends

* Black-box entry subcircuit for sky130_fd_sc_hd__xnor2_4 abstract view
.subckt sky130_fd_sc_hd__xnor2_4 A B VGND VNB VPB VPWR Y
.ends

* Black-box entry subcircuit for sky130_fd_sc_hd__nor3_4 abstract view
.subckt sky130_fd_sc_hd__nor3_4 A B C VGND VNB VPB VPWR Y
.ends

* Black-box entry subcircuit for sky130_fd_sc_hd__or2b_1 abstract view
.subckt sky130_fd_sc_hd__or2b_1 A B_N VGND VNB VPB VPWR X
.ends

* Black-box entry subcircuit for sky130_fd_sc_hd__a21bo_1 abstract view
.subckt sky130_fd_sc_hd__a21bo_1 A1 A2 B1_N VGND VNB VPB VPWR X
.ends

* Black-box entry subcircuit for sky130_fd_sc_hd__a2111o_1 abstract view
.subckt sky130_fd_sc_hd__a2111o_1 A1 A2 B1 C1 D1 VGND VNB VPB VPWR X
.ends

* Black-box entry subcircuit for sky130_fd_sc_hd__o221ai_1 abstract view
.subckt sky130_fd_sc_hd__o221ai_1 A1 A2 B1 B2 C1 VGND VNB VPB VPWR Y
.ends

* Black-box entry subcircuit for sky130_fd_sc_hd__clkbuf_16 abstract view
.subckt sky130_fd_sc_hd__clkbuf_16 A VGND VNB VPB VPWR X
.ends

* Black-box entry subcircuit for sky130_fd_sc_hd__or2b_2 abstract view
.subckt sky130_fd_sc_hd__or2b_2 A B_N VGND VNB VPB VPWR X
.ends

* Black-box entry subcircuit for sky130_fd_sc_hd__a311o_1 abstract view
.subckt sky130_fd_sc_hd__a311o_1 A1 A2 A3 B1 C1 VGND VNB VPB VPWR X
.ends

* Black-box entry subcircuit for sky130_fd_sc_hd__nand2_4 abstract view
.subckt sky130_fd_sc_hd__nand2_4 A B VGND VNB VPB VPWR Y
.ends

* Black-box entry subcircuit for sky130_fd_sc_hd__a2bb2oi_1 abstract view
.subckt sky130_fd_sc_hd__a2bb2oi_1 A1_N A2_N B1 B2 VGND VNB VPB VPWR Y
.ends

* Black-box entry subcircuit for sky130_fd_sc_hd__o22ai_4 abstract view
.subckt sky130_fd_sc_hd__o22ai_4 A1 A2 B1 B2 VGND VNB VPB VPWR Y
.ends

* Black-box entry subcircuit for sky130_fd_sc_hd__o31ai_4 abstract view
.subckt sky130_fd_sc_hd__o31ai_4 A1 A2 A3 B1 VGND VNB VPB VPWR Y
.ends

* Black-box entry subcircuit for sky130_fd_sc_hd__a2bb2oi_2 abstract view
.subckt sky130_fd_sc_hd__a2bb2oi_2 A1_N A2_N B1 B2 VGND VNB VPB VPWR Y
.ends

* Black-box entry subcircuit for sky130_fd_sc_hd__a211oi_2 abstract view
.subckt sky130_fd_sc_hd__a211oi_2 A1 A2 B1 C1 VGND VNB VPB VPWR Y
.ends

* Black-box entry subcircuit for sky130_fd_sc_hd__o22ai_2 abstract view
.subckt sky130_fd_sc_hd__o22ai_2 A1 A2 B1 B2 VGND VNB VPB VPWR Y
.ends

.subckt cic_block io_adr_i[0] io_adr_i[1] io_cs_i io_dat_i[0] io_dat_i[10] io_dat_i[11]
+ io_dat_i[12] io_dat_i[13] io_dat_i[14] io_dat_i[15] io_dat_i[1] io_dat_i[2] io_dat_i[3]
+ io_dat_i[4] io_dat_i[5] io_dat_i[6] io_dat_i[7] io_dat_i[8] io_dat_i[9] io_dat_o[0]
+ io_dat_o[10] io_dat_o[11] io_dat_o[12] io_dat_o[13] io_dat_o[14] io_dat_o[15] io_dat_o[1]
+ io_dat_o[2] io_dat_o[3] io_dat_o[4] io_dat_o[5] io_dat_o[6] io_dat_o[7] io_dat_o[8]
+ io_dat_o[9] io_eo[0] io_eo[10] io_eo[11] io_eo[12] io_eo[13] io_eo[14] io_eo[15]
+ io_eo[16] io_eo[17] io_eo[18] io_eo[19] io_eo[1] io_eo[20] io_eo[21] io_eo[22] io_eo[23]
+ io_eo[24] io_eo[25] io_eo[26] io_eo[27] io_eo[28] io_eo[29] io_eo[2] io_eo[30] io_eo[31]
+ io_eo[32] io_eo[33] io_eo[34] io_eo[35] io_eo[36] io_eo[37] io_eo[38] io_eo[39]
+ io_eo[3] io_eo[40] io_eo[41] io_eo[42] io_eo[43] io_eo[44] io_eo[45] io_eo[46] io_eo[47]
+ io_eo[48] io_eo[49] io_eo[4] io_eo[50] io_eo[51] io_eo[52] io_eo[53] io_eo[54] io_eo[55]
+ io_eo[56] io_eo[57] io_eo[58] io_eo[59] io_eo[5] io_eo[60] io_eo[61] io_eo[62] io_eo[63]
+ io_eo[6] io_eo[7] io_eo[8] io_eo[9] io_i_0_ci io_i_0_in1[0] io_i_0_in1[1] io_i_0_in1[2]
+ io_i_0_in1[3] io_i_0_in1[4] io_i_0_in1[5] io_i_0_in1[6] io_i_0_in1[7] io_i_1_ci
+ io_i_1_in1[0] io_i_1_in1[1] io_i_1_in1[2] io_i_1_in1[3] io_i_1_in1[4] io_i_1_in1[5]
+ io_i_1_in1[6] io_i_1_in1[7] io_i_2_ci io_i_2_in1[0] io_i_2_in1[1] io_i_2_in1[2]
+ io_i_2_in1[3] io_i_2_in1[4] io_i_2_in1[5] io_i_2_in1[6] io_i_2_in1[7] io_i_3_ci
+ io_i_3_in1[0] io_i_3_in1[1] io_i_3_in1[2] io_i_3_in1[3] io_i_3_in1[4] io_i_3_in1[5]
+ io_i_3_in1[6] io_i_3_in1[7] io_i_4_ci io_i_4_in1[0] io_i_4_in1[1] io_i_4_in1[2]
+ io_i_4_in1[3] io_i_4_in1[4] io_i_4_in1[5] io_i_4_in1[6] io_i_4_in1[7] io_i_5_ci
+ io_i_5_in1[0] io_i_5_in1[1] io_i_5_in1[2] io_i_5_in1[3] io_i_5_in1[4] io_i_5_in1[5]
+ io_i_5_in1[6] io_i_5_in1[7] io_i_6_ci io_i_6_in1[0] io_i_6_in1[1] io_i_6_in1[2]
+ io_i_6_in1[3] io_i_6_in1[4] io_i_6_in1[5] io_i_6_in1[6] io_i_6_in1[7] io_i_7_ci
+ io_i_7_in1[0] io_i_7_in1[1] io_i_7_in1[2] io_i_7_in1[3] io_i_7_in1[4] io_i_7_in1[5]
+ io_i_7_in1[6] io_i_7_in1[7] io_o_0_co io_o_0_out[0] io_o_0_out[1] io_o_0_out[2]
+ io_o_0_out[3] io_o_0_out[4] io_o_0_out[5] io_o_0_out[6] io_o_0_out[7] io_o_1_co
+ io_o_1_out[0] io_o_1_out[1] io_o_1_out[2] io_o_1_out[3] io_o_1_out[4] io_o_1_out[5]
+ io_o_1_out[6] io_o_1_out[7] io_o_2_co io_o_2_out[0] io_o_2_out[1] io_o_2_out[2]
+ io_o_2_out[3] io_o_2_out[4] io_o_2_out[5] io_o_2_out[6] io_o_2_out[7] io_o_3_co
+ io_o_3_out[0] io_o_3_out[1] io_o_3_out[2] io_o_3_out[3] io_o_3_out[4] io_o_3_out[5]
+ io_o_3_out[6] io_o_3_out[7] io_o_4_co io_o_4_out[0] io_o_4_out[1] io_o_4_out[2]
+ io_o_4_out[3] io_o_4_out[4] io_o_4_out[5] io_o_4_out[6] io_o_4_out[7] io_o_5_co
+ io_o_5_out[0] io_o_5_out[1] io_o_5_out[2] io_o_5_out[3] io_o_5_out[4] io_o_5_out[5]
+ io_o_5_out[6] io_o_5_out[7] io_o_6_co io_o_6_out[0] io_o_6_out[1] io_o_6_out[2]
+ io_o_6_out[3] io_o_6_out[4] io_o_6_out[5] io_o_6_out[6] io_o_6_out[7] io_o_7_co
+ io_o_7_out[0] io_o_7_out[1] io_o_7_out[2] io_o_7_out[3] io_o_7_out[4] io_o_7_out[5]
+ io_o_7_out[6] io_o_7_out[7] io_vci io_vco io_vi io_we_i io_wo[0] io_wo[10] io_wo[11]
+ io_wo[12] io_wo[13] io_wo[14] io_wo[15] io_wo[16] io_wo[17] io_wo[18] io_wo[19]
+ io_wo[1] io_wo[20] io_wo[21] io_wo[22] io_wo[23] io_wo[24] io_wo[25] io_wo[26] io_wo[27]
+ io_wo[28] io_wo[29] io_wo[2] io_wo[30] io_wo[31] io_wo[32] io_wo[33] io_wo[34] io_wo[35]
+ io_wo[36] io_wo[37] io_wo[38] io_wo[39] io_wo[3] io_wo[40] io_wo[41] io_wo[42] io_wo[43]
+ io_wo[44] io_wo[45] io_wo[46] io_wo[47] io_wo[48] io_wo[49] io_wo[4] io_wo[50] io_wo[51]
+ io_wo[52] io_wo[53] io_wo[54] io_wo[55] io_wo[56] io_wo[57] io_wo[58] io_wo[59]
+ io_wo[5] io_wo[60] io_wo[61] io_wo[62] io_wo[63] io_wo[6] io_wo[7] io_wo[8] io_wo[9]
+ wb_clk_i wb_rst_i vccd1 vssd1
XFILLER_39_277 vssd1 vssd1 vccd1 vccd1 sky130_fd_sc_hd__fill_1
X_3155_ _3189_/CLK _3155_/D vssd1 vssd1 vccd1 vccd1 _3155_/Q sky130_fd_sc_hd__dfxtp_4
X_3086_ _3110_/CLK _3086_/D vssd1 vssd1 vccd1 vccd1 _3086_/Q sky130_fd_sc_hd__dfxtp_1
X_2106_ _3047_/Q _2996_/X _2106_/S vssd1 vssd1 vccd1 vccd1 _3047_/D sky130_fd_sc_hd__mux2_1
XFILLER_54_236 vssd1 vssd1 vccd1 vccd1 sky130_fd_sc_hd__decap_4
X_2037_ _2034_/Y _2035_/Y _2094_/A vssd1 vssd1 vccd1 vccd1 _2037_/Y sky130_fd_sc_hd__a21oi_4
XFILLER_62_280 vssd1 vssd1 vccd1 vccd1 sky130_fd_sc_hd__decap_4
X_2939_ _2387_/Y _1923_/Y _3210_/Q vssd1 vssd1 vccd1 vccd1 _2939_/X sky130_fd_sc_hd__mux2_1
XFILLER_89_144 vssd1 vssd1 vccd1 vccd1 sky130_fd_sc_hd__decap_8
XFILLER_89_188 vssd1 vssd1 vccd1 vccd1 sky130_fd_sc_hd__fill_2
XFILLER_93_25 vssd1 vssd1 vccd1 vccd1 sky130_fd_sc_hd__decap_4
XFILLER_45_225 vssd1 vssd1 vccd1 vccd1 sky130_fd_sc_hd__decap_4
XFILLER_45_258 vssd1 vssd1 vccd1 vccd1 sky130_fd_sc_hd__decap_4
XFILLER_13_144 vssd1 vssd1 vccd1 vccd1 sky130_fd_sc_hd__decap_12
XFILLER_42_95 vssd1 vssd1 vccd1 vccd1 sky130_fd_sc_hd__decap_4
XFILLER_83_309 vssd1 vssd1 vccd1 vccd1 sky130_fd_sc_hd__decap_4
XFILLER_44_280 vssd1 vssd1 vccd1 vccd1 sky130_fd_sc_hd__decap_4
X_2724_ _2727_/X _3140_/Q _3200_/Q vssd1 vssd1 vccd1 vccd1 _2724_/X sky130_fd_sc_hd__mux2_1
X_2655_ _3030_/Q vssd1 vssd1 vccd1 vccd1 _2655_/Y sky130_fd_sc_hd__inv_2
X_1606_ input6/X _1606_/B _2608_/A vssd1 vssd1 vccd1 vccd1 _1606_/Y sky130_fd_sc_hd__nor3_2
X_2586_ _3175_/Q _1544_/B _2582_/Y _2585_/Y vssd1 vssd1 vccd1 vccd1 _2586_/X sky130_fd_sc_hd__a211o_1
X_1537_ input2/X vssd1 vssd1 vccd1 vccd1 _2598_/A sky130_fd_sc_hd__clkbuf_2
X_1468_ _1472_/A _1633_/B vssd1 vssd1 vccd1 vccd1 _1468_/Y sky130_fd_sc_hd__nand2_1
X_3207_ _3209_/CLK _3207_/D vssd1 vssd1 vccd1 vccd1 _3207_/Q sky130_fd_sc_hd__dfxtp_4
X_3138_ _3138_/CLK _3138_/D vssd1 vssd1 vccd1 vccd1 _3138_/Q sky130_fd_sc_hd__dfxtp_2
XFILLER_27_258 vssd1 vssd1 vccd1 vccd1 sky130_fd_sc_hd__decap_4
X_3069_ _3211_/CLK _3069_/D vssd1 vssd1 vccd1 vccd1 _3069_/Q sky130_fd_sc_hd__dfxtp_1
XFILLER_12_21 vssd1 vssd1 vccd1 vccd1 sky130_fd_sc_hd__decap_4
XFILLER_10_147 vssd1 vssd1 vccd1 vccd1 sky130_fd_sc_hd__decap_4
XFILLER_10_136 vssd1 vssd1 vccd1 vccd1 sky130_fd_sc_hd__fill_2
XFILLER_12_87 vssd1 vssd1 vccd1 vccd1 sky130_fd_sc_hd__decap_4
XFILLER_2_302 vssd1 vssd1 vccd1 vccd1 sky130_fd_sc_hd__fill_1
XFILLER_88_47 vssd1 vssd1 vccd1 vccd1 sky130_fd_sc_hd__decap_8
XFILLER_88_58 vssd1 vssd1 vccd1 vccd1 sky130_fd_sc_hd__decap_4
X_2440_ _3079_/Q vssd1 vssd1 vccd1 vccd1 _2440_/Y sky130_fd_sc_hd__inv_2
X_2371_ _2371_/A vssd1 vssd1 vccd1 vccd1 _2371_/Y sky130_fd_sc_hd__inv_2
XFILLER_68_147 vssd1 vssd1 vccd1 vccd1 sky130_fd_sc_hd__fill_2
XFILLER_76_180 vssd1 vssd1 vccd1 vccd1 sky130_fd_sc_hd__decap_4
XFILLER_17_280 vssd1 vssd1 vccd1 vccd1 sky130_fd_sc_hd__fill_1
XFILLER_32_294 vssd1 vssd1 vccd1 vccd1 sky130_fd_sc_hd__decap_6
X_2707_ _2707_/A vssd1 vssd1 vccd1 vccd1 _2707_/X sky130_fd_sc_hd__clkbuf_2
Xoutput242 _3041_/Q vssd1 vssd1 vccd1 vccd1 io_o_7_out[2] sky130_fd_sc_hd__clkbuf_2
Xoutput231 _3055_/Q vssd1 vssd1 vccd1 vccd1 io_o_6_out[0] sky130_fd_sc_hd__clkbuf_2
Xoutput220 _3094_/Q vssd1 vssd1 vccd1 vccd1 io_o_4_out[7] sky130_fd_sc_hd__clkbuf_2
Xoutput253 _2673_/X vssd1 vssd1 vccd1 vccd1 io_wo[13] sky130_fd_sc_hd__clkbuf_2
X_2638_ _2646_/A _2981_/X vssd1 vssd1 vccd1 vccd1 _2638_/Y sky130_fd_sc_hd__nand2_1
Xoutput264 _2683_/X vssd1 vssd1 vccd1 vccd1 io_wo[23] sky130_fd_sc_hd__clkbuf_2
Xoutput275 _2693_/X vssd1 vssd1 vccd1 vccd1 io_wo[33] sky130_fd_sc_hd__clkbuf_2
X_2569_ _2600_/A _2600_/B _3156_/Q vssd1 vssd1 vccd1 vccd1 _2569_/Y sky130_fd_sc_hd__nand3_2
Xoutput286 _2703_/X vssd1 vssd1 vccd1 vccd1 io_wo[43] sky130_fd_sc_hd__clkbuf_2
Xoutput297 _2713_/X vssd1 vssd1 vccd1 vccd1 io_wo[53] sky130_fd_sc_hd__clkbuf_2
XINSDIODE2_4 _3015_/Q vssd1 vssd1 vccd1 vccd1 sky130_fd_sc_hd__diode_2
XFILLER_74_139 vssd1 vssd1 vccd1 vccd1 sky130_fd_sc_hd__decap_8
XFILLER_70_301 vssd1 vssd1 vccd1 vccd1 sky130_fd_sc_hd__decap_4
XPHY_702 vssd1 vccd1 sky130_fd_sc_hd__tapvpwrvgnd_1
XFILLER_82_172 vssd1 vssd1 vccd1 vccd1 sky130_fd_sc_hd__decap_4
XPHY_713 vssd1 vccd1 sky130_fd_sc_hd__tapvpwrvgnd_1
XFILLER_17_9 vssd1 vssd1 vccd1 vccd1 sky130_fd_sc_hd__decap_6
XFILLER_65_117 vssd1 vssd1 vccd1 vccd1 sky130_fd_sc_hd__decap_6
XFILLER_58_180 vssd1 vssd1 vccd1 vccd1 sky130_fd_sc_hd__decap_4
XFILLER_0_57 vssd1 vssd1 vccd1 vccd1 sky130_fd_sc_hd__fill_1
XFILLER_73_194 vssd1 vssd1 vccd1 vccd1 sky130_fd_sc_hd__decap_6
XFILLER_21_209 vssd1 vssd1 vccd1 vccd1 sky130_fd_sc_hd__fill_1
XFILLER_14_261 vssd1 vssd1 vccd1 vccd1 sky130_fd_sc_hd__decap_6
X_1940_ _1887_/Y _1882_/X _1886_/Y _2026_/A vssd1 vssd1 vccd1 vccd1 _1940_/Y sky130_fd_sc_hd__o31ai_2
X_1871_ _1868_/X _1869_/Y _1659_/X _1870_/Y vssd1 vssd1 vccd1 vccd1 _3103_/D sky130_fd_sc_hd__o2bb2ai_1
XFILLER_80_70 vssd1 vssd1 vccd1 vccd1 sky130_fd_sc_hd__decap_8
XFILLER_50_3 vssd1 vssd1 vccd1 vccd1 sky130_fd_sc_hd__fill_2
X_2423_ _2427_/A _2759_/X vssd1 vssd1 vccd1 vccd1 _2423_/Y sky130_fd_sc_hd__nand2_1
X_2354_ _3139_/Q vssd1 vssd1 vccd1 vccd1 _2354_/Y sky130_fd_sc_hd__inv_2
X_2285_ _2285_/A _2285_/B vssd1 vssd1 vccd1 vccd1 _2285_/X sky130_fd_sc_hd__xor2_1
XFILLER_56_128 vssd1 vssd1 vccd1 vccd1 sky130_fd_sc_hd__decap_6
XFILLER_64_172 vssd1 vssd1 vccd1 vccd1 sky130_fd_sc_hd__decap_4
XFILLER_20_286 vssd1 vssd1 vccd1 vccd1 sky130_fd_sc_hd__decap_8
XFILLER_69_38 vssd1 vssd1 vccd1 vccd1 sky130_fd_sc_hd__decap_6
XFILLER_47_106 vssd1 vssd1 vccd1 vccd1 sky130_fd_sc_hd__decap_8
XFILLER_18_86 vssd1 vssd1 vccd1 vccd1 sky130_fd_sc_hd__fill_1
XFILLER_18_97 vssd1 vssd1 vccd1 vccd1 sky130_fd_sc_hd__decap_4
XFILLER_55_183 vssd1 vssd1 vccd1 vccd1 sky130_fd_sc_hd__decap_8
XPHY_510 vssd1 vccd1 sky130_fd_sc_hd__tapvpwrvgnd_1
XFILLER_70_131 vssd1 vssd1 vccd1 vccd1 sky130_fd_sc_hd__decap_4
XFILLER_34_52 vssd1 vssd1 vccd1 vccd1 sky130_fd_sc_hd__decap_4
XPHY_521 vssd1 vccd1 sky130_fd_sc_hd__tapvpwrvgnd_1
XPHY_532 vssd1 vccd1 sky130_fd_sc_hd__tapvpwrvgnd_1
XPHY_543 vssd1 vccd1 sky130_fd_sc_hd__tapvpwrvgnd_1
XFILLER_34_96 vssd1 vssd1 vccd1 vccd1 sky130_fd_sc_hd__decap_4
XPHY_554 vssd1 vccd1 sky130_fd_sc_hd__tapvpwrvgnd_1
XPHY_565 vssd1 vccd1 sky130_fd_sc_hd__tapvpwrvgnd_1
XPHY_576 vssd1 vccd1 sky130_fd_sc_hd__tapvpwrvgnd_1
XPHY_587 vssd1 vccd1 sky130_fd_sc_hd__tapvpwrvgnd_1
XPHY_598 vssd1 vccd1 sky130_fd_sc_hd__tapvpwrvgnd_1
XFILLER_59_60 vssd1 vssd1 vccd1 vccd1 sky130_fd_sc_hd__decap_4
XFILLER_93_212 vssd1 vssd1 vccd1 vccd1 sky130_fd_sc_hd__decap_12
XFILLER_78_286 vssd1 vssd1 vccd1 vccd1 sky130_fd_sc_hd__decap_8
X_2070_ _2070_/A _2070_/B vssd1 vssd1 vccd1 vccd1 _2072_/C sky130_fd_sc_hd__nor2_1
XFILLER_75_70 vssd1 vssd1 vccd1 vccd1 sky130_fd_sc_hd__decap_4
XFILLER_34_334 vssd1 vssd1 vccd1 vccd1 sky130_fd_sc_hd__decap_8
XFILLER_46_172 vssd1 vssd1 vccd1 vccd1 sky130_fd_sc_hd__decap_6
X_2972_ _2308_/Y _2307_/Y _3150_/Q vssd1 vssd1 vccd1 vccd1 _2972_/X sky130_fd_sc_hd__mux2_1
XFILLER_91_80 vssd1 vssd1 vccd1 vccd1 sky130_fd_sc_hd__decap_6
X_1923_ _3092_/Q vssd1 vssd1 vccd1 vccd1 _1923_/Y sky130_fd_sc_hd__inv_2
X_1854_ _1862_/S _1851_/X _1853_/X vssd1 vssd1 vccd1 vccd1 _3108_/D sky130_fd_sc_hd__o21bai_1
X_1785_ _1785_/A _1785_/B vssd1 vssd1 vccd1 vccd1 _1785_/X sky130_fd_sc_hd__xor2_1
X_2406_ _3178_/Q vssd1 vssd1 vccd1 vccd1 _2406_/Y sky130_fd_sc_hd__inv_2
X_2337_ _2361_/A _3003_/X vssd1 vssd1 vccd1 vccd1 _2337_/Y sky130_fd_sc_hd__nand2_1
XFILLER_69_275 vssd1 vssd1 vccd1 vccd1 sky130_fd_sc_hd__decap_4
XFILLER_29_139 vssd1 vssd1 vccd1 vccd1 sky130_fd_sc_hd__decap_4
X_2268_ _2268_/A vssd1 vssd1 vccd1 vccd1 _2268_/Y sky130_fd_sc_hd__inv_2
XFILLER_37_150 vssd1 vssd1 vccd1 vccd1 sky130_fd_sc_hd__fill_1
X_2199_ _2199_/A vssd1 vssd1 vccd1 vccd1 _2253_/C sky130_fd_sc_hd__inv_2
XFILLER_52_153 vssd1 vssd1 vccd1 vccd1 sky130_fd_sc_hd__decap_4
XFILLER_71_17 vssd1 vssd1 vccd1 vccd1 sky130_fd_sc_hd__fill_1
XFILLER_20_10 vssd1 vssd1 vccd1 vccd1 sky130_fd_sc_hd__decap_6
XFILLER_29_30 vssd1 vssd1 vccd1 vccd1 sky130_fd_sc_hd__decap_4
XFILLER_75_201 vssd1 vssd1 vccd1 vccd1 sky130_fd_sc_hd__decap_4
XFILLER_28_172 vssd1 vssd1 vccd1 vccd1 sky130_fd_sc_hd__decap_4
XFILLER_31_315 vssd1 vssd1 vccd1 vccd1 sky130_fd_sc_hd__decap_4
XPHY_340 vssd1 vccd1 sky130_fd_sc_hd__tapvpwrvgnd_1
XPHY_351 vssd1 vccd1 sky130_fd_sc_hd__tapvpwrvgnd_1
XPHY_362 vssd1 vccd1 sky130_fd_sc_hd__tapvpwrvgnd_1
XPHY_373 vssd1 vccd1 sky130_fd_sc_hd__tapvpwrvgnd_1
XPHY_384 vssd1 vccd1 sky130_fd_sc_hd__tapvpwrvgnd_1
XPHY_395 vssd1 vccd1 sky130_fd_sc_hd__tapvpwrvgnd_1
XFILLER_61_50 vssd1 vssd1 vccd1 vccd1 sky130_fd_sc_hd__decap_4
X_1570_ _1570_/A vssd1 vssd1 vccd1 vccd1 _1570_/X sky130_fd_sc_hd__clkbuf_2
XFILLER_3_282 vssd1 vssd1 vccd1 vccd1 sky130_fd_sc_hd__decap_12
X_3171_ _3189_/CLK _3171_/D vssd1 vssd1 vccd1 vccd1 _3171_/Q sky130_fd_sc_hd__dfxtp_1
XFILLER_13_3 vssd1 vssd1 vccd1 vccd1 sky130_fd_sc_hd__decap_3
X_2122_ _2815_/X vssd1 vssd1 vccd1 vccd1 _2123_/B sky130_fd_sc_hd__inv_2
XFILLER_66_212 vssd1 vssd1 vccd1 vccd1 sky130_fd_sc_hd__decap_4
XFILLER_26_109 vssd1 vssd1 vccd1 vccd1 sky130_fd_sc_hd__decap_4
X_2053_ _2994_/X _2977_/X vssd1 vssd1 vccd1 vccd1 _2070_/A sky130_fd_sc_hd__nor2_1
X_2955_ _2361_/Y _2954_/X _3153_/Q vssd1 vssd1 vccd1 vccd1 _2955_/X sky130_fd_sc_hd__mux2_2
X_2886_ _2457_/Y _2885_/X _3207_/Q vssd1 vssd1 vccd1 vccd1 _2886_/X sky130_fd_sc_hd__mux2_1
X_1906_ _1920_/A _1906_/B _1920_/B vssd1 vssd1 vccd1 vccd1 _1906_/Y sky130_fd_sc_hd__nand3_4
X_1837_ _1831_/Y _1833_/Y _1836_/Y vssd1 vssd1 vccd1 vccd1 _1837_/Y sky130_fd_sc_hd__a21boi_1
X_1768_ _1769_/A _1769_/B _1769_/C vssd1 vssd1 vccd1 vccd1 _1768_/Y sky130_fd_sc_hd__a21oi_1
XFILLER_89_315 vssd1 vssd1 vccd1 vccd1 sky130_fd_sc_hd__decap_4
X_1699_ _1699_/A _1699_/B vssd1 vssd1 vccd1 vccd1 _1699_/X sky130_fd_sc_hd__xor2_1
XFILLER_57_201 vssd1 vssd1 vccd1 vccd1 sky130_fd_sc_hd__decap_4
XFILLER_66_39 vssd1 vssd1 vccd1 vccd1 sky130_fd_sc_hd__decap_4
XFILLER_57_256 vssd1 vssd1 vccd1 vccd1 sky130_fd_sc_hd__fill_1
XFILLER_72_215 vssd1 vssd1 vccd1 vccd1 sky130_fd_sc_hd__decap_4
XFILLER_82_38 vssd1 vssd1 vccd1 vccd1 sky130_fd_sc_hd__decap_12
XFILLER_15_10 vssd1 vssd1 vccd1 vccd1 sky130_fd_sc_hd__decap_4
XFILLER_13_315 vssd1 vssd1 vccd1 vccd1 sky130_fd_sc_hd__decap_8
XFILLER_80_281 vssd1 vssd1 vccd1 vccd1 sky130_fd_sc_hd__decap_4
XFILLER_15_87 vssd1 vssd1 vccd1 vccd1 sky130_fd_sc_hd__decap_4
XFILLER_40_178 vssd1 vssd1 vccd1 vccd1 sky130_fd_sc_hd__fill_1
Xinput120 io_i_4_ci vssd1 vssd1 vccd1 vccd1 _2407_/A sky130_fd_sc_hd__clkbuf_1
Xinput153 io_i_7_in1[5] vssd1 vssd1 vccd1 vccd1 _2418_/A sky130_fd_sc_hd__buf_1
Xinput131 io_i_5_in1[1] vssd1 vssd1 vccd1 vccd1 _2368_/A sky130_fd_sc_hd__clkbuf_1
XFILLER_0_285 vssd1 vssd1 vccd1 vccd1 sky130_fd_sc_hd__decap_4
Xinput142 io_i_6_in1[3] vssd1 vssd1 vccd1 vccd1 _2310_/A sky130_fd_sc_hd__buf_1
XFILLER_63_215 vssd1 vssd1 vccd1 vccd1 sky130_fd_sc_hd__decap_4
XFILLER_56_94 vssd1 vssd1 vccd1 vccd1 sky130_fd_sc_hd__fill_2
XFILLER_31_112 vssd1 vssd1 vccd1 vccd1 sky130_fd_sc_hd__decap_4
XFILLER_31_134 vssd1 vssd1 vccd1 vccd1 sky130_fd_sc_hd__decap_8
XFILLER_71_281 vssd1 vssd1 vccd1 vccd1 sky130_fd_sc_hd__decap_4
XPHY_170 vssd1 vssd1 vccd1 vccd1 sky130_fd_sc_hd__decap_3
XPHY_181 vssd1 vssd1 vccd1 vccd1 sky130_fd_sc_hd__decap_3
XPHY_192 vssd1 vccd1 sky130_fd_sc_hd__tapvpwrvgnd_1
X_2740_ _2305_/Y _2242_/Y _3162_/Q vssd1 vssd1 vccd1 vccd1 _2740_/X sky130_fd_sc_hd__mux2_1
X_2671_ _2671_/A vssd1 vssd1 vccd1 vccd1 _2671_/X sky130_fd_sc_hd__clkbuf_1
X_1622_ _3160_/Q _1613_/X _1583_/X _1621_/Y vssd1 vssd1 vccd1 vccd1 _3160_/D sky130_fd_sc_hd__o211a_1
X_1553_ _3182_/Q _1540_/X _1541_/X _1552_/Y vssd1 vssd1 vccd1 vccd1 _3182_/D sky130_fd_sc_hd__o211a_1
X_1484_ _1535_/B vssd1 vssd1 vccd1 vccd1 _1498_/B sky130_fd_sc_hd__clkbuf_2
XFILLER_39_201 vssd1 vssd1 vccd1 vccd1 sky130_fd_sc_hd__decap_4
XFILLER_39_245 vssd1 vssd1 vccd1 vccd1 sky130_fd_sc_hd__decap_4
XFILLER_39_256 vssd1 vssd1 vccd1 vccd1 sky130_fd_sc_hd__fill_1
X_3154_ _3189_/CLK _3154_/D vssd1 vssd1 vccd1 vccd1 _3154_/Q sky130_fd_sc_hd__dfxtp_4
X_2105_ _3048_/Q _2997_/X _2106_/S vssd1 vssd1 vccd1 vccd1 _3048_/D sky130_fd_sc_hd__mux2_1
X_3085_ _3110_/CLK _3085_/D vssd1 vssd1 vccd1 vccd1 _3085_/Q sky130_fd_sc_hd__dfxtp_1
X_2036_ _2988_/X _2965_/X vssd1 vssd1 vccd1 vccd1 _2094_/A sky130_fd_sc_hd__nor2_4
XFILLER_62_270 vssd1 vssd1 vccd1 vccd1 sky130_fd_sc_hd__fill_1
XFILLER_22_167 vssd1 vssd1 vccd1 vccd1 sky130_fd_sc_hd__decap_4
X_2938_ _3007_/A3 _3107_/Q _3162_/Q vssd1 vssd1 vccd1 vccd1 _2938_/X sky130_fd_sc_hd__mux2_1
X_2869_ input99/X _3020_/Q _3156_/Q vssd1 vssd1 vccd1 vccd1 _2869_/X sky130_fd_sc_hd__mux2_1
XFILLER_93_59 vssd1 vssd1 vccd1 vccd1 sky130_fd_sc_hd__decap_8
XFILLER_60_229 vssd1 vssd1 vccd1 vccd1 sky130_fd_sc_hd__decap_4
XFILLER_13_156 vssd1 vssd1 vccd1 vccd1 sky130_fd_sc_hd__decap_12
XFILLER_42_52 vssd1 vssd1 vccd1 vccd1 sky130_fd_sc_hd__decap_4
XFILLER_3_24 vssd1 vssd1 vccd1 vccd1 sky130_fd_sc_hd__decap_4
XFILLER_3_79 vssd1 vssd1 vccd1 vccd1 sky130_fd_sc_hd__decap_6
XFILLER_67_71 vssd1 vssd1 vccd1 vccd1 sky130_fd_sc_hd__decap_8
XFILLER_67_82 vssd1 vssd1 vccd1 vccd1 sky130_fd_sc_hd__decap_4