* NGSPICE file created from wb_local.ext - technology: sky130A

* Black-box entry subcircuit for sky130_fd_sc_hd__decap_4 abstract view
.subckt sky130_fd_sc_hd__decap_4 VGND VNB VPB VPWR
.ends

* Black-box entry subcircuit for sky130_fd_sc_hd__decap_12 abstract view
.subckt sky130_fd_sc_hd__decap_12 VGND VNB VPB VPWR
.ends

* Black-box entry subcircuit for sky130_fd_sc_hd__tapvpwrvgnd_1 abstract view
.subckt sky130_fd_sc_hd__tapvpwrvgnd_1 VGND VPWR
.ends

* Black-box entry subcircuit for sky130_fd_sc_hd__decap_6 abstract view
.subckt sky130_fd_sc_hd__decap_6 VGND VNB VPB VPWR
.ends

* Black-box entry subcircuit for sky130_fd_sc_hd__decap_8 abstract view
.subckt sky130_fd_sc_hd__decap_8 VGND VNB VPB VPWR
.ends

* Black-box entry subcircuit for sky130_fd_sc_hd__fill_1 abstract view
.subckt sky130_fd_sc_hd__fill_1 VGND VNB VPB VPWR
.ends

* Black-box entry subcircuit for sky130_fd_sc_hd__dfxtp_2 abstract view
.subckt sky130_fd_sc_hd__dfxtp_2 CLK D VGND VNB VPB VPWR Q
.ends

* Black-box entry subcircuit for sky130_fd_sc_hd__buf_2 abstract view
.subckt sky130_fd_sc_hd__buf_2 A VGND VNB VPB VPWR X
.ends

* Black-box entry subcircuit for sky130_fd_sc_hd__fill_2 abstract view
.subckt sky130_fd_sc_hd__fill_2 VGND VNB VPB VPWR
.ends

* Black-box entry subcircuit for sky130_fd_sc_hd__a211o_4 abstract view
.subckt sky130_fd_sc_hd__a211o_4 A1 A2 B1 C1 VGND VNB VPB VPWR X
.ends

* Black-box entry subcircuit for sky130_fd_sc_hd__clkbuf_1 abstract view
.subckt sky130_fd_sc_hd__clkbuf_1 A VGND VNB VPB VPWR X
.ends

* Black-box entry subcircuit for sky130_fd_sc_hd__or4_4 abstract view
.subckt sky130_fd_sc_hd__or4_4 A B C D VGND VNB VPB VPWR X
.ends

* Black-box entry subcircuit for sky130_fd_sc_hd__a221o_1 abstract view
.subckt sky130_fd_sc_hd__a221o_1 A1 A2 B1 B2 C1 VGND VNB VPB VPWR X
.ends

* Black-box entry subcircuit for sky130_fd_sc_hd__buf_4 abstract view
.subckt sky130_fd_sc_hd__buf_4 A VGND VNB VPB VPWR X
.ends

* Black-box entry subcircuit for sky130_fd_sc_hd__buf_1 abstract view
.subckt sky130_fd_sc_hd__buf_1 A VGND VNB VPB VPWR X
.ends

* Black-box entry subcircuit for sky130_fd_sc_hd__or2_4 abstract view
.subckt sky130_fd_sc_hd__or2_4 A B VGND VNB VPB VPWR X
.ends

* Black-box entry subcircuit for sky130_fd_sc_hd__a22o_2 abstract view
.subckt sky130_fd_sc_hd__a22o_2 A1 A2 B1 B2 VGND VNB VPB VPWR X
.ends

* Black-box entry subcircuit for sky130_fd_sc_hd__clkbuf_2 abstract view
.subckt sky130_fd_sc_hd__clkbuf_2 A VGND VNB VPB VPWR X
.ends

* Black-box entry subcircuit for sky130_fd_sc_hd__decap_3 abstract view
.subckt sky130_fd_sc_hd__decap_3 VGND VNB VPB VPWR
.ends

* Black-box entry subcircuit for sky130_fd_sc_hd__a22o_1 abstract view
.subckt sky130_fd_sc_hd__a22o_1 A1 A2 B1 B2 VGND VNB VPB VPWR X
.ends

* Black-box entry subcircuit for sky130_fd_sc_hd__conb_1 abstract view
.subckt sky130_fd_sc_hd__conb_1 VGND VNB VPB VPWR HI LO
.ends

* Black-box entry subcircuit for sky130_fd_sc_hd__and3b_1 abstract view
.subckt sky130_fd_sc_hd__and3b_1 A_N B C VGND VNB VPB VPWR X
.ends

* Black-box entry subcircuit for sky130_fd_sc_hd__clkbuf_4 abstract view
.subckt sky130_fd_sc_hd__clkbuf_4 A VGND VNB VPB VPWR X
.ends

* Black-box entry subcircuit for sky130_fd_sc_hd__dlymetal6s2s_1 abstract view
.subckt sky130_fd_sc_hd__dlymetal6s2s_1 A VGND VNB VPB VPWR X
.ends

* Black-box entry subcircuit for sky130_fd_sc_hd__or3_1 abstract view
.subckt sky130_fd_sc_hd__or3_1 A B C VGND VNB VPB VPWR X
.ends

* Black-box entry subcircuit for sky130_fd_sc_hd__and2_1 abstract view
.subckt sky130_fd_sc_hd__and2_1 A B VGND VNB VPB VPWR X
.ends

* Black-box entry subcircuit for sky130_fd_sc_hd__and4b_2 abstract view
.subckt sky130_fd_sc_hd__and4b_2 A_N B C D VGND VNB VPB VPWR X
.ends

* Black-box entry subcircuit for sky130_fd_sc_hd__o32a_1 abstract view
.subckt sky130_fd_sc_hd__o32a_1 A1 A2 A3 B1 B2 VGND VNB VPB VPWR X
.ends

* Black-box entry subcircuit for sky130_fd_sc_hd__dfxtp_1 abstract view
.subckt sky130_fd_sc_hd__dfxtp_1 CLK D VGND VNB VPB VPWR Q
.ends

* Black-box entry subcircuit for sky130_fd_sc_hd__nor2_1 abstract view
.subckt sky130_fd_sc_hd__nor2_1 A B VGND VNB VPB VPWR Y
.ends

* Black-box entry subcircuit for sky130_fd_sc_hd__o22a_1 abstract view
.subckt sky130_fd_sc_hd__o22a_1 A1 A2 B1 B2 VGND VNB VPB VPWR X
.ends

* Black-box entry subcircuit for sky130_fd_sc_hd__and4b_1 abstract view
.subckt sky130_fd_sc_hd__and4b_1 A_N B C D VGND VNB VPB VPWR X
.ends

* Black-box entry subcircuit for sky130_fd_sc_hd__a221o_2 abstract view
.subckt sky130_fd_sc_hd__a221o_2 A1 A2 B1 B2 C1 VGND VNB VPB VPWR X
.ends

* Black-box entry subcircuit for sky130_fd_sc_hd__inv_2 abstract view
.subckt sky130_fd_sc_hd__inv_2 A VGND VNB VPB VPWR Y
.ends

* Black-box entry subcircuit for sky130_fd_sc_hd__a31oi_4 abstract view
.subckt sky130_fd_sc_hd__a31oi_4 A1 A2 A3 B1 VGND VNB VPB VPWR Y
.ends

* Black-box entry subcircuit for sky130_fd_sc_hd__buf_6 abstract view
.subckt sky130_fd_sc_hd__buf_6 A VGND VNB VPB VPWR X
.ends

* Black-box entry subcircuit for sky130_fd_sc_hd__nor4_2 abstract view
.subckt sky130_fd_sc_hd__nor4_2 A B C D VGND VNB VPB VPWR Y
.ends

* Black-box entry subcircuit for sky130_fd_sc_hd__inv_4 abstract view
.subckt sky130_fd_sc_hd__inv_4 A VGND VNB VPB VPWR Y
.ends

* Black-box entry subcircuit for sky130_fd_sc_hd__dfxtp_4 abstract view
.subckt sky130_fd_sc_hd__dfxtp_4 CLK D VGND VNB VPB VPWR Q
.ends

* Black-box entry subcircuit for sky130_fd_sc_hd__a211o_2 abstract view
.subckt sky130_fd_sc_hd__a211o_2 A1 A2 B1 C1 VGND VNB VPB VPWR X
.ends

* Black-box entry subcircuit for sky130_fd_sc_hd__or2_2 abstract view
.subckt sky130_fd_sc_hd__or2_2 A B VGND VNB VPB VPWR X
.ends

* Black-box entry subcircuit for sky130_fd_sc_hd__and3_1 abstract view
.subckt sky130_fd_sc_hd__and3_1 A B C VGND VNB VPB VPWR X
.ends

* Black-box entry subcircuit for sky130_fd_sc_hd__o21ai_1 abstract view
.subckt sky130_fd_sc_hd__o21ai_1 A1 A2 B1 VGND VNB VPB VPWR Y
.ends

* Black-box entry subcircuit for sky130_fd_sc_hd__or3_4 abstract view
.subckt sky130_fd_sc_hd__or3_4 A B C VGND VNB VPB VPWR X
.ends

* Black-box entry subcircuit for sky130_fd_sc_hd__and4b_4 abstract view
.subckt sky130_fd_sc_hd__and4b_4 A_N B C D VGND VNB VPB VPWR X
.ends

* Black-box entry subcircuit for sky130_fd_sc_hd__clkbuf_16 abstract view
.subckt sky130_fd_sc_hd__clkbuf_16 A VGND VNB VPB VPWR X
.ends

* Black-box entry subcircuit for sky130_fd_sc_hd__nand2_8 abstract view
.subckt sky130_fd_sc_hd__nand2_8 A B VGND VNB VPB VPWR Y
.ends

* Black-box entry subcircuit for sky130_fd_sc_hd__nor3_4 abstract view
.subckt sky130_fd_sc_hd__nor3_4 A B C VGND VNB VPB VPWR Y
.ends

* Black-box entry subcircuit for sky130_fd_sc_hd__or2b_4 abstract view
.subckt sky130_fd_sc_hd__or2b_4 A B_N VGND VNB VPB VPWR X
.ends

* Black-box entry subcircuit for sky130_fd_sc_hd__a32o_1 abstract view
.subckt sky130_fd_sc_hd__a32o_1 A1 A2 A3 B1 B2 VGND VNB VPB VPWR X
.ends

* Black-box entry subcircuit for sky130_fd_sc_hd__diode_2 abstract view
.subckt sky130_fd_sc_hd__diode_2 DIODE VGND VNB VPB VPWR
.ends

* Black-box entry subcircuit for sky130_fd_sc_hd__or4b_4 abstract view
.subckt sky130_fd_sc_hd__or4b_4 A B C D_N VGND VNB VPB VPWR X
.ends

.subckt wb_local dsi[0] dsi[1] dsi[2] dsi[3] dsi[4] dsi[5] dsi[6] dsi[7] io_in[0]
+ io_in[10] io_in[11] io_in[12] io_in[13] io_in[14] io_in[15] io_in[16] io_in[17]
+ io_in[18] io_in[19] io_in[1] io_in[20] io_in[21] io_in[22] io_in[23] io_in[24] io_in[25]
+ io_in[26] io_in[27] io_in[28] io_in[29] io_in[2] io_in[30] io_in[31] io_in[32] io_in[33]
+ io_in[34] io_in[35] io_in[36] io_in[37] io_in[3] io_in[4] io_in[5] io_in[6] io_in[7]
+ io_in[8] io_in[9] io_oeb[0] io_oeb[10] io_oeb[11] io_oeb[12] io_oeb[13] io_oeb[14]
+ io_oeb[15] io_oeb[16] io_oeb[17] io_oeb[18] io_oeb[19] io_oeb[1] io_oeb[20] io_oeb[21]
+ io_oeb[22] io_oeb[23] io_oeb[24] io_oeb[25] io_oeb[26] io_oeb[27] io_oeb[28] io_oeb[29]
+ io_oeb[2] io_oeb[30] io_oeb[31] io_oeb[32] io_oeb[33] io_oeb[34] io_oeb[35] io_oeb[36]
+ io_oeb[37] io_oeb[3] io_oeb[4] io_oeb[5] io_oeb[6] io_oeb[7] io_oeb[8] io_oeb[9]
+ io_out[0] io_out[10] io_out[11] io_out[12] io_out[13] io_out[14] io_out[15] io_out[16]
+ io_out[17] io_out[18] io_out[19] io_out[1] io_out[20] io_out[21] io_out[22] io_out[23]
+ io_out[24] io_out[25] io_out[26] io_out[27] io_out[28] io_out[29] io_out[2] io_out[30]
+ io_out[31] io_out[32] io_out[33] io_out[34] io_out[35] io_out[36] io_out[37] io_out[3]
+ io_out[4] io_out[5] io_out[6] io_out[7] io_out[8] io_out[9] irq[0] irq[1] irq[2]
+ la_reset[0] la_reset[10] la_reset[11] la_reset[1] la_reset[2] la_reset[3] la_reset[4]
+ la_reset[5] la_reset[6] la_reset[7] la_reset[8] la_reset[9] m_irqs[0] m_irqs[10]
+ m_irqs[11] m_irqs[1] m_irqs[2] m_irqs[3] m_irqs[4] m_irqs[5] m_irqs[6] m_irqs[7]
+ m_irqs[8] m_irqs[9] m_la_reset[0] m_la_reset[10] m_la_reset[11] m_la_reset[1] m_la_reset[2]
+ m_la_reset[3] m_la_reset[4] m_la_reset[5] m_la_reset[6] m_la_reset[7] m_la_reset[8]
+ m_la_reset[9] m_wb_clk_i m_wb_rst_i m_wbs_ack_o[0] m_wbs_ack_o[10] m_wbs_ack_o[11]
+ m_wbs_ack_o[1] m_wbs_ack_o[2] m_wbs_ack_o[3] m_wbs_ack_o[4] m_wbs_ack_o[5] m_wbs_ack_o[6]
+ m_wbs_ack_o[7] m_wbs_ack_o[8] m_wbs_ack_o[9] m_wbs_adr_i[0] m_wbs_adr_i[10] m_wbs_adr_i[11]
+ m_wbs_adr_i[1] m_wbs_adr_i[2] m_wbs_adr_i[3] m_wbs_adr_i[4] m_wbs_adr_i[5] m_wbs_adr_i[6]
+ m_wbs_adr_i[7] m_wbs_adr_i[8] m_wbs_adr_i[9] m_wbs_cs_i[0] m_wbs_cs_i[10] m_wbs_cs_i[11]
+ m_wbs_cs_i[1] m_wbs_cs_i[2] m_wbs_cs_i[3] m_wbs_cs_i[4] m_wbs_cs_i[5] m_wbs_cs_i[6]
+ m_wbs_cs_i[7] m_wbs_cs_i[8] m_wbs_cs_i[9] m_wbs_dat_i[0] m_wbs_dat_i[10] m_wbs_dat_i[11]
+ m_wbs_dat_i[12] m_wbs_dat_i[13] m_wbs_dat_i[14] m_wbs_dat_i[15] m_wbs_dat_i[16]
+ m_wbs_dat_i[17] m_wbs_dat_i[18] m_wbs_dat_i[19] m_wbs_dat_i[1] m_wbs_dat_i[20] m_wbs_dat_i[21]
+ m_wbs_dat_i[22] m_wbs_dat_i[23] m_wbs_dat_i[24] m_wbs_dat_i[25] m_wbs_dat_i[26]
+ m_wbs_dat_i[27] m_wbs_dat_i[28] m_wbs_dat_i[29] m_wbs_dat_i[2] m_wbs_dat_i[30] m_wbs_dat_i[31]
+ m_wbs_dat_i[3] m_wbs_dat_i[4] m_wbs_dat_i[5] m_wbs_dat_i[6] m_wbs_dat_i[7] m_wbs_dat_i[8]
+ m_wbs_dat_i[9] m_wbs_dat_o_0[0] m_wbs_dat_o_0[10] m_wbs_dat_o_0[11] m_wbs_dat_o_0[12]
+ m_wbs_dat_o_0[13] m_wbs_dat_o_0[14] m_wbs_dat_o_0[15] m_wbs_dat_o_0[16] m_wbs_dat_o_0[17]
+ m_wbs_dat_o_0[18] m_wbs_dat_o_0[19] m_wbs_dat_o_0[1] m_wbs_dat_o_0[20] m_wbs_dat_o_0[21]
+ m_wbs_dat_o_0[22] m_wbs_dat_o_0[23] m_wbs_dat_o_0[24] m_wbs_dat_o_0[25] m_wbs_dat_o_0[26]
+ m_wbs_dat_o_0[27] m_wbs_dat_o_0[28] m_wbs_dat_o_0[29] m_wbs_dat_o_0[2] m_wbs_dat_o_0[30]
+ m_wbs_dat_o_0[31] m_wbs_dat_o_0[3] m_wbs_dat_o_0[4] m_wbs_dat_o_0[5] m_wbs_dat_o_0[6]
+ m_wbs_dat_o_0[7] m_wbs_dat_o_0[8] m_wbs_dat_o_0[9] m_wbs_dat_o_10[0] m_wbs_dat_o_10[10]
+ m_wbs_dat_o_10[11] m_wbs_dat_o_10[12] m_wbs_dat_o_10[13] m_wbs_dat_o_10[14] m_wbs_dat_o_10[15]
+ m_wbs_dat_o_10[16] m_wbs_dat_o_10[17] m_wbs_dat_o_10[18] m_wbs_dat_o_10[19] m_wbs_dat_o_10[1]
+ m_wbs_dat_o_10[20] m_wbs_dat_o_10[21] m_wbs_dat_o_10[22] m_wbs_dat_o_10[23] m_wbs_dat_o_10[24]
+ m_wbs_dat_o_10[25] m_wbs_dat_o_10[26] m_wbs_dat_o_10[27] m_wbs_dat_o_10[28] m_wbs_dat_o_10[29]
+ m_wbs_dat_o_10[2] m_wbs_dat_o_10[30] m_wbs_dat_o_10[31] m_wbs_dat_o_10[3] m_wbs_dat_o_10[4]
+ m_wbs_dat_o_10[5] m_wbs_dat_o_10[6] m_wbs_dat_o_10[7] m_wbs_dat_o_10[8] m_wbs_dat_o_10[9]
+ m_wbs_dat_o_11[0] m_wbs_dat_o_11[10] m_wbs_dat_o_11[11] m_wbs_dat_o_11[12] m_wbs_dat_o_11[13]
+ m_wbs_dat_o_11[14] m_wbs_dat_o_11[15] m_wbs_dat_o_11[16] m_wbs_dat_o_11[17] m_wbs_dat_o_11[18]
+ m_wbs_dat_o_11[19] m_wbs_dat_o_11[1] m_wbs_dat_o_11[20] m_wbs_dat_o_11[21] m_wbs_dat_o_11[22]
+ m_wbs_dat_o_11[23] m_wbs_dat_o_11[24] m_wbs_dat_o_11[25] m_wbs_dat_o_11[26] m_wbs_dat_o_11[27]
+ m_wbs_dat_o_11[28] m_wbs_dat_o_11[29] m_wbs_dat_o_11[2] m_wbs_dat_o_11[30] m_wbs_dat_o_11[31]
+ m_wbs_dat_o_11[3] m_wbs_dat_o_11[4] m_wbs_dat_o_11[5] m_wbs_dat_o_11[6] m_wbs_dat_o_11[7]
+ m_wbs_dat_o_11[8] m_wbs_dat_o_11[9] m_wbs_dat_o_1[0] m_wbs_dat_o_1[10] m_wbs_dat_o_1[11]
+ m_wbs_dat_o_1[12] m_wbs_dat_o_1[13] m_wbs_dat_o_1[14] m_wbs_dat_o_1[15] m_wbs_dat_o_1[16]
+ m_wbs_dat_o_1[17] m_wbs_dat_o_1[18] m_wbs_dat_o_1[19] m_wbs_dat_o_1[1] m_wbs_dat_o_1[20]
+ m_wbs_dat_o_1[21] m_wbs_dat_o_1[22] m_wbs_dat_o_1[23] m_wbs_dat_o_1[24] m_wbs_dat_o_1[25]
+ m_wbs_dat_o_1[26] m_wbs_dat_o_1[27] m_wbs_dat_o_1[28] m_wbs_dat_o_1[29] m_wbs_dat_o_1[2]
+ m_wbs_dat_o_1[30] m_wbs_dat_o_1[31] m_wbs_dat_o_1[3] m_wbs_dat_o_1[4] m_wbs_dat_o_1[5]
+ m_wbs_dat_o_1[6] m_wbs_dat_o_1[7] m_wbs_dat_o_1[8] m_wbs_dat_o_1[9] m_wbs_dat_o_2[0]
+ m_wbs_dat_o_2[10] m_wbs_dat_o_2[11] m_wbs_dat_o_2[12] m_wbs_dat_o_2[13] m_wbs_dat_o_2[14]
+ m_wbs_dat_o_2[15] m_wbs_dat_o_2[16] m_wbs_dat_o_2[17] m_wbs_dat_o_2[18] m_wbs_dat_o_2[19]
+ m_wbs_dat_o_2[1] m_wbs_dat_o_2[20] m_wbs_dat_o_2[21] m_wbs_dat_o_2[22] m_wbs_dat_o_2[23]
+ m_wbs_dat_o_2[24] m_wbs_dat_o_2[25] m_wbs_dat_o_2[26] m_wbs_dat_o_2[27] m_wbs_dat_o_2[28]
+ m_wbs_dat_o_2[29] m_wbs_dat_o_2[2] m_wbs_dat_o_2[30] m_wbs_dat_o_2[31] m_wbs_dat_o_2[3]
+ m_wbs_dat_o_2[4] m_wbs_dat_o_2[5] m_wbs_dat_o_2[6] m_wbs_dat_o_2[7] m_wbs_dat_o_2[8]
+ m_wbs_dat_o_2[9] m_wbs_dat_o_3[0] m_wbs_dat_o_3[10] m_wbs_dat_o_3[11] m_wbs_dat_o_3[12]
+ m_wbs_dat_o_3[13] m_wbs_dat_o_3[14] m_wbs_dat_o_3[15] m_wbs_dat_o_3[16] m_wbs_dat_o_3[17]
+ m_wbs_dat_o_3[18] m_wbs_dat_o_3[19] m_wbs_dat_o_3[1] m_wbs_dat_o_3[20] m_wbs_dat_o_3[21]
+ m_wbs_dat_o_3[22] m_wbs_dat_o_3[23] m_wbs_dat_o_3[24] m_wbs_dat_o_3[25] m_wbs_dat_o_3[26]
+ m_wbs_dat_o_3[27] m_wbs_dat_o_3[28] m_wbs_dat_o_3[29] m_wbs_dat_o_3[2] m_wbs_dat_o_3[30]
+ m_wbs_dat_o_3[31] m_wbs_dat_o_3[3] m_wbs_dat_o_3[4] m_wbs_dat_o_3[5] m_wbs_dat_o_3[6]
+ m_wbs_dat_o_3[7] m_wbs_dat_o_3[8] m_wbs_dat_o_3[9] m_wbs_dat_o_4[0] m_wbs_dat_o_4[10]
+ m_wbs_dat_o_4[11] m_wbs_dat_o_4[12] m_wbs_dat_o_4[13] m_wbs_dat_o_4[14] m_wbs_dat_o_4[15]
+ m_wbs_dat_o_4[16] m_wbs_dat_o_4[17] m_wbs_dat_o_4[18] m_wbs_dat_o_4[19] m_wbs_dat_o_4[1]
+ m_wbs_dat_o_4[20] m_wbs_dat_o_4[21] m_wbs_dat_o_4[22] m_wbs_dat_o_4[23] m_wbs_dat_o_4[24]
+ m_wbs_dat_o_4[25] m_wbs_dat_o_4[26] m_wbs_dat_o_4[27] m_wbs_dat_o_4[28] m_wbs_dat_o_4[29]
+ m_wbs_dat_o_4[2] m_wbs_dat_o_4[30] m_wbs_dat_o_4[31] m_wbs_dat_o_4[3] m_wbs_dat_o_4[4]
+ m_wbs_dat_o_4[5] m_wbs_dat_o_4[6] m_wbs_dat_o_4[7] m_wbs_dat_o_4[8] m_wbs_dat_o_4[9]
+ m_wbs_dat_o_5[0] m_wbs_dat_o_5[10] m_wbs_dat_o_5[11] m_wbs_dat_o_5[12] m_wbs_dat_o_5[13]
+ m_wbs_dat_o_5[14] m_wbs_dat_o_5[15] m_wbs_dat_o_5[16] m_wbs_dat_o_5[17] m_wbs_dat_o_5[18]
+ m_wbs_dat_o_5[19] m_wbs_dat_o_5[1] m_wbs_dat_o_5[20] m_wbs_dat_o_5[21] m_wbs_dat_o_5[22]
+ m_wbs_dat_o_5[23] m_wbs_dat_o_5[24] m_wbs_dat_o_5[25] m_wbs_dat_o_5[26] m_wbs_dat_o_5[27]
+ m_wbs_dat_o_5[28] m_wbs_dat_o_5[29] m_wbs_dat_o_5[2] m_wbs_dat_o_5[30] m_wbs_dat_o_5[31]
+ m_wbs_dat_o_5[3] m_wbs_dat_o_5[4] m_wbs_dat_o_5[5] m_wbs_dat_o_5[6] m_wbs_dat_o_5[7]
+ m_wbs_dat_o_5[8] m_wbs_dat_o_5[9] m_wbs_dat_o_6[0] m_wbs_dat_o_6[10] m_wbs_dat_o_6[11]
+ m_wbs_dat_o_6[12] m_wbs_dat_o_6[13] m_wbs_dat_o_6[14] m_wbs_dat_o_6[15] m_wbs_dat_o_6[16]
+ m_wbs_dat_o_6[17] m_wbs_dat_o_6[18] m_wbs_dat_o_6[19] m_wbs_dat_o_6[1] m_wbs_dat_o_6[20]
+ m_wbs_dat_o_6[21] m_wbs_dat_o_6[22] m_wbs_dat_o_6[23] m_wbs_dat_o_6[24] m_wbs_dat_o_6[25]
+ m_wbs_dat_o_6[26] m_wbs_dat_o_6[27] m_wbs_dat_o_6[28] m_wbs_dat_o_6[29] m_wbs_dat_o_6[2]
+ m_wbs_dat_o_6[30] m_wbs_dat_o_6[31] m_wbs_dat_o_6[3] m_wbs_dat_o_6[4] m_wbs_dat_o_6[5]
+ m_wbs_dat_o_6[6] m_wbs_dat_o_6[7] m_wbs_dat_o_6[8] m_wbs_dat_o_6[9] m_wbs_dat_o_7[0]
+ m_wbs_dat_o_7[10] m_wbs_dat_o_7[11] m_wbs_dat_o_7[12] m_wbs_dat_o_7[13] m_wbs_dat_o_7[14]
+ m_wbs_dat_o_7[15] m_wbs_dat_o_7[16] m_wbs_dat_o_7[17] m_wbs_dat_o_7[18] m_wbs_dat_o_7[19]
+ m_wbs_dat_o_7[1] m_wbs_dat_o_7[20] m_wbs_dat_o_7[21] m_wbs_dat_o_7[22] m_wbs_dat_o_7[23]
+ m_wbs_dat_o_7[24] m_wbs_dat_o_7[25] m_wbs_dat_o_7[26] m_wbs_dat_o_7[27] m_wbs_dat_o_7[28]
+ m_wbs_dat_o_7[29] m_wbs_dat_o_7[2] m_wbs_dat_o_7[30] m_wbs_dat_o_7[31] m_wbs_dat_o_7[3]
+ m_wbs_dat_o_7[4] m_wbs_dat_o_7[5] m_wbs_dat_o_7[6] m_wbs_dat_o_7[7] m_wbs_dat_o_7[8]
+ m_wbs_dat_o_7[9] m_wbs_dat_o_8[0] m_wbs_dat_o_8[10] m_wbs_dat_o_8[11] m_wbs_dat_o_8[12]
+ m_wbs_dat_o_8[13] m_wbs_dat_o_8[14] m_wbs_dat_o_8[15] m_wbs_dat_o_8[16] m_wbs_dat_o_8[17]
+ m_wbs_dat_o_8[18] m_wbs_dat_o_8[19] m_wbs_dat_o_8[1] m_wbs_dat_o_8[20] m_wbs_dat_o_8[21]
+ m_wbs_dat_o_8[22] m_wbs_dat_o_8[23] m_wbs_dat_o_8[24] m_wbs_dat_o_8[25] m_wbs_dat_o_8[26]
+ m_wbs_dat_o_8[27] m_wbs_dat_o_8[28] m_wbs_dat_o_8[29] m_wbs_dat_o_8[2] m_wbs_dat_o_8[30]
+ m_wbs_dat_o_8[31] m_wbs_dat_o_8[3] m_wbs_dat_o_8[4] m_wbs_dat_o_8[5] m_wbs_dat_o_8[6]
+ m_wbs_dat_o_8[7] m_wbs_dat_o_8[8] m_wbs_dat_o_8[9] m_wbs_dat_o_9[0] m_wbs_dat_o_9[10]
+ m_wbs_dat_o_9[11] m_wbs_dat_o_9[12] m_wbs_dat_o_9[13] m_wbs_dat_o_9[14] m_wbs_dat_o_9[15]
+ m_wbs_dat_o_9[16] m_wbs_dat_o_9[17] m_wbs_dat_o_9[18] m_wbs_dat_o_9[19] m_wbs_dat_o_9[1]
+ m_wbs_dat_o_9[20] m_wbs_dat_o_9[21] m_wbs_dat_o_9[22] m_wbs_dat_o_9[23] m_wbs_dat_o_9[24]
+ m_wbs_dat_o_9[25] m_wbs_dat_o_9[26] m_wbs_dat_o_9[27] m_wbs_dat_o_9[28] m_wbs_dat_o_9[29]
+ m_wbs_dat_o_9[2] m_wbs_dat_o_9[30] m_wbs_dat_o_9[31] m_wbs_dat_o_9[3] m_wbs_dat_o_9[4]
+ m_wbs_dat_o_9[5] m_wbs_dat_o_9[6] m_wbs_dat_o_9[7] m_wbs_dat_o_9[8] m_wbs_dat_o_9[9]
+ m_wbs_we_i mt_QEI_ChA_0 mt_QEI_ChA_1 mt_QEI_ChA_2 mt_QEI_ChA_3 mt_QEI_ChB_0 mt_QEI_ChB_1
+ mt_QEI_ChB_2 mt_QEI_ChB_3 mt_clo_test mt_pwm_h_0 mt_pwm_h_1 mt_pwm_h_2 mt_pwm_h_3
+ mt_pwm_l_0 mt_pwm_l_1 mt_pwm_l_2 mt_pwm_l_3 mt_pwm_test mt_sync_in[0] mt_sync_in[1]
+ mt_sync_in[2] mt_sync_in[3] mt_sync_in[4] mt_sync_in[5] mt_sync_in[6] mt_sync_in[7]
+ mt_sync_out wb_clk_i wb_rst_i wbs_ack_o wbs_adr_i[0] wbs_adr_i[10] wbs_adr_i[11]
+ wbs_adr_i[12] wbs_adr_i[13] wbs_adr_i[14] wbs_adr_i[15] wbs_adr_i[16] wbs_adr_i[17]
+ wbs_adr_i[18] wbs_adr_i[19] wbs_adr_i[1] wbs_adr_i[20] wbs_adr_i[21] wbs_adr_i[22]
+ wbs_adr_i[23] wbs_adr_i[24] wbs_adr_i[25] wbs_adr_i[26] wbs_adr_i[27] wbs_adr_i[28]
+ wbs_adr_i[29] wbs_adr_i[2] wbs_adr_i[30] wbs_adr_i[31] wbs_adr_i[3] wbs_adr_i[4]
+ wbs_adr_i[5] wbs_adr_i[6] wbs_adr_i[7] wbs_adr_i[8] wbs_adr_i[9] wbs_cyc_i wbs_dat_i[0]
+ wbs_dat_i[10] wbs_dat_i[11] wbs_dat_i[12] wbs_dat_i[13] wbs_dat_i[14] wbs_dat_i[15]
+ wbs_dat_i[16] wbs_dat_i[17] wbs_dat_i[18] wbs_dat_i[19] wbs_dat_i[1] wbs_dat_i[20]
+ wbs_dat_i[21] wbs_dat_i[22] wbs_dat_i[23] wbs_dat_i[24] wbs_dat_i[25] wbs_dat_i[26]
+ wbs_dat_i[27] wbs_dat_i[28] wbs_dat_i[29] wbs_dat_i[2] wbs_dat_i[30] wbs_dat_i[31]
+ wbs_dat_i[3] wbs_dat_i[4] wbs_dat_i[5] wbs_dat_i[6] wbs_dat_i[7] wbs_dat_i[8] wbs_dat_i[9]
+ wbs_dat_o[0] wbs_dat_o[10] wbs_dat_o[11] wbs_dat_o[12] wbs_dat_o[13] wbs_dat_o[14]
+ wbs_dat_o[15] wbs_dat_o[16] wbs_dat_o[17] wbs_dat_o[18] wbs_dat_o[19] wbs_dat_o[1]
+ wbs_dat_o[20] wbs_dat_o[21] wbs_dat_o[22] wbs_dat_o[23] wbs_dat_o[24] wbs_dat_o[25]
+ wbs_dat_o[26] wbs_dat_o[27] wbs_dat_o[28] wbs_dat_o[29] wbs_dat_o[2] wbs_dat_o[30]
+ wbs_dat_o[31] wbs_dat_o[3] wbs_dat_o[4] wbs_dat_o[5] wbs_dat_o[6] wbs_dat_o[7] wbs_dat_o[8]
+ wbs_dat_o[9] wbs_sel_i[0] wbs_sel_i[1] wbs_sel_i[2] wbs_sel_i[3] wbs_stb_i wbs_we_i
+ vccd1 vssd1
XFILLER_79_380 vssd1 vssd1 vccd1 vccd1 sky130_fd_sc_hd__decap_4
XFILLER_100_127 vssd1 vssd1 vccd1 vccd1 sky130_fd_sc_hd__decap_12
XFILLER_54_236 vssd1 vssd1 vccd1 vccd1 sky130_fd_sc_hd__decap_12
XFILLER_210_212 vssd1 vssd1 vccd1 vccd1 sky130_fd_sc_hd__decap_4
XFILLER_195_403 vssd1 vssd1 vccd1 vccd1 sky130_fd_sc_hd__decap_4
XPHY_1707 vssd1 vccd1 sky130_fd_sc_hd__tapvpwrvgnd_1
XFILLER_210_245 vssd1 vssd1 vccd1 vccd1 sky130_fd_sc_hd__decap_6
XPHY_1729 vssd1 vccd1 sky130_fd_sc_hd__tapvpwrvgnd_1
XPHY_1718 vssd1 vccd1 sky130_fd_sc_hd__tapvpwrvgnd_1
XFILLER_175_193 vssd1 vssd1 vccd1 vccd1 sky130_fd_sc_hd__decap_6
XFILLER_190_163 vssd1 vssd1 vccd1 vccd1 sky130_fd_sc_hd__decap_8
XFILLER_184_39 vssd1 vssd1 vccd1 vccd1 sky130_fd_sc_hd__decap_12
XFILLER_190_196 vssd1 vssd1 vccd1 vccd1 sky130_fd_sc_hd__decap_12
XFILLER_89_111 vssd1 vssd1 vccd1 vccd1 sky130_fd_sc_hd__decap_12
XFILLER_104_400 vssd1 vssd1 vccd1 vccd1 sky130_fd_sc_hd__decap_6
XFILLER_117_66 vssd1 vssd1 vccd1 vccd1 sky130_fd_sc_hd__decap_12
XFILLER_89_144 vssd1 vssd1 vccd1 vccd1 sky130_fd_sc_hd__decap_12
XFILLER_117_99 vssd1 vssd1 vccd1 vccd1 sky130_fd_sc_hd__decap_12
XFILLER_77_339 vssd1 vssd1 vccd1 vccd1 sky130_fd_sc_hd__decap_12
XFILLER_133_54 vssd1 vssd1 vccd1 vccd1 sky130_fd_sc_hd__decap_12
XFILLER_18_406 vssd1 vssd1 vccd1 vccd1 sky130_fd_sc_hd__fill_1
XFILLER_172_3 vssd1 vssd1 vccd1 vccd1 sky130_fd_sc_hd__decap_12
XFILLER_133_87 vssd1 vssd1 vccd1 vccd1 sky130_fd_sc_hd__decap_12
XFILLER_85_372 vssd1 vssd1 vccd1 vccd1 sky130_fd_sc_hd__decap_6
XFILLER_85_394 vssd1 vssd1 vccd1 vccd1 sky130_fd_sc_hd__decap_4
XFILLER_45_258 vssd1 vssd1 vccd1 vccd1 sky130_fd_sc_hd__decap_4
XFILLER_201_201 vssd1 vssd1 vccd1 vccd1 sky130_fd_sc_hd__decap_12
XFILLER_198_241 vssd1 vssd1 vccd1 vccd1 sky130_fd_sc_hd__decap_12
XFILLER_13_111 vssd1 vssd1 vccd1 vccd1 sky130_fd_sc_hd__decap_12
XFILLER_158_127 vssd1 vssd1 vccd1 vccd1 sky130_fd_sc_hd__decap_12
XFILLER_13_144 vssd1 vssd1 vccd1 vccd1 sky130_fd_sc_hd__decap_12
XFILLER_158_51 vssd1 vssd1 vccd1 vccd1 sky130_fd_sc_hd__decap_6
XFILLER_154_300 vssd1 vssd1 vccd1 vccd1 sky130_fd_sc_hd__decap_4
XFILLER_139_363 vssd1 vssd1 vccd1 vccd1 sky130_fd_sc_hd__decap_8
XFILLER_114_208 vssd1 vssd1 vccd1 vccd1 sky130_fd_sc_hd__decap_12
XFILLER_5_343 vssd1 vssd1 vccd1 vccd1 sky130_fd_sc_hd__decap_12
XFILLER_5_387 vssd1 vssd1 vccd1 vccd1 sky130_fd_sc_hd__decap_4
XFILLER_122_241 vssd1 vssd1 vccd1 vccd1 sky130_fd_sc_hd__decap_12
XFILLER_174_94 vssd1 vssd1 vccd1 vccd1 sky130_fd_sc_hd__decap_12
XFILLER_209_367 vssd1 vssd1 vccd1 vccd1 sky130_fd_sc_hd__decap_4
XFILLER_190_82 vssd1 vssd1 vccd1 vccd1 sky130_fd_sc_hd__decap_12
XFILLER_76_372 vssd1 vssd1 vccd1 vccd1 sky130_fd_sc_hd__decap_4
XFILLER_177_403 vssd1 vssd1 vccd1 vccd1 sky130_fd_sc_hd__decap_4
XFILLER_192_406 vssd1 vssd1 vccd1 vccd1 sky130_fd_sc_hd__fill_1
XFILLER_164_108 vssd1 vssd1 vccd1 vccd1 sky130_fd_sc_hd__decap_6
X_0985_ _1017_/CLK _0985_/D vssd1 vssd1 vccd1 vccd1 _0985_/Q sky130_fd_sc_hd__dfxtp_2
XFILLER_145_333 vssd1 vssd1 vccd1 vccd1 sky130_fd_sc_hd__decap_4
XFILLER_160_303 vssd1 vssd1 vccd1 vccd1 sky130_fd_sc_hd__decap_12
XFILLER_172_196 vssd1 vssd1 vccd1 vccd1 sky130_fd_sc_hd__decap_12
XFILLER_172_163 vssd1 vssd1 vccd1 vccd1 sky130_fd_sc_hd__decap_8
XFILLER_101_403 vssd1 vssd1 vccd1 vccd1 sky130_fd_sc_hd__decap_4
XFILLER_59_339 vssd1 vssd1 vccd1 vccd1 sky130_fd_sc_hd__decap_12
X_0419_ _0694_/A vssd1 vssd1 vccd1 vccd1 _0816_/C sky130_fd_sc_hd__buf_2
XFILLER_67_372 vssd1 vssd1 vccd1 vccd1 sky130_fd_sc_hd__decap_8
XFILLER_27_258 vssd1 vssd1 vccd1 vccd1 sky130_fd_sc_hd__decap_12
XPHY_905 vssd1 vccd1 sky130_fd_sc_hd__tapvpwrvgnd_1
XPHY_916 vssd1 vccd1 sky130_fd_sc_hd__tapvpwrvgnd_1
XPHY_927 vssd1 vccd1 sky130_fd_sc_hd__tapvpwrvgnd_1
XFILLER_82_397 vssd1 vssd1 vccd1 vccd1 sky130_fd_sc_hd__fill_2
XPHY_1515 vssd1 vccd1 sky130_fd_sc_hd__tapvpwrvgnd_1
XPHY_1504 vssd1 vccd1 sky130_fd_sc_hd__tapvpwrvgnd_1
XPHY_938 vssd1 vccd1 sky130_fd_sc_hd__tapvpwrvgnd_1
XPHY_949 vssd1 vccd1 sky130_fd_sc_hd__tapvpwrvgnd_1
XPHY_1548 vssd1 vccd1 sky130_fd_sc_hd__tapvpwrvgnd_1
XPHY_1537 vssd1 vccd1 sky130_fd_sc_hd__tapvpwrvgnd_1
XPHY_1526 vssd1 vccd1 sky130_fd_sc_hd__tapvpwrvgnd_1
XPHY_1559 vssd1 vccd1 sky130_fd_sc_hd__tapvpwrvgnd_1
XFILLER_136_322 vssd1 vssd1 vccd1 vccd1 sky130_fd_sc_hd__decap_12
XFILLER_136_355 vssd1 vssd1 vccd1 vccd1 sky130_fd_sc_hd__decap_12
XFILLER_88_58 vssd1 vssd1 vccd1 vccd1 sky130_fd_sc_hd__decap_8
XFILLER_144_42 vssd1 vssd1 vccd1 vccd1 sky130_fd_sc_hd__decap_12
XFILLER_104_241 vssd1 vssd1 vccd1 vccd1 sky130_fd_sc_hd__decap_12
XFILLER_92_106 vssd1 vssd1 vccd1 vccd1 sky130_fd_sc_hd__decap_8
XFILLER_92_139 vssd1 vssd1 vccd1 vccd1 sky130_fd_sc_hd__decap_12
XFILLER_85_180 vssd1 vssd1 vccd1 vccd1 sky130_fd_sc_hd__decap_12
XFILLER_159_403 vssd1 vssd1 vccd1 vccd1 sky130_fd_sc_hd__decap_4
XFILLER_174_406 vssd1 vssd1 vccd1 vccd1 sky130_fd_sc_hd__fill_1
XFILLER_41_294 vssd1 vssd1 vccd1 vccd1 sky130_fd_sc_hd__decap_12
X_0770_ _0770_/A1 _0543_/A _0735_/X _0769_/X vssd1 vssd1 vccd1 vccd1 _0770_/X sky130_fd_sc_hd__a211o_4
XFILLER_154_163 vssd1 vssd1 vccd1 vccd1 sky130_fd_sc_hd__decap_8
XFILLER_154_196 vssd1 vssd1 vccd1 vccd1 sky130_fd_sc_hd__decap_8
XFILLER_150_391 vssd1 vssd1 vccd1 vccd1 sky130_fd_sc_hd__fill_1
XFILLER_209_120 vssd1 vssd1 vccd1 vccd1 sky130_fd_sc_hd__decap_4
XFILLER_1_390 vssd1 vssd1 vccd1 vccd1 sky130_fd_sc_hd__fill_1
XFILLER_209_142 vssd1 vssd1 vccd1 vccd1 sky130_fd_sc_hd__fill_1
XFILLER_204_56 vssd1 vssd1 vccd1 vccd1 sky130_fd_sc_hd__fill_1
XFILLER_49_372 vssd1 vssd1 vccd1 vccd1 sky130_fd_sc_hd__decap_6
XFILLER_110_277 vssd1 vssd1 vccd1 vccd1 sky130_fd_sc_hd__decap_8
XFILLER_177_222 vssd1 vssd1 vccd1 vccd1 sky130_fd_sc_hd__decap_4
X_0968_ _0968_/A vssd1 vssd1 vccd1 vccd1 _0968_/X sky130_fd_sc_hd__clkbuf_1
XFILLER_118_322 vssd1 vssd1 vccd1 vccd1 sky130_fd_sc_hd__decap_12
XFILLER_118_355 vssd1 vssd1 vccd1 vccd1 sky130_fd_sc_hd__decap_12
X_0899_ input4/X vssd1 vssd1 vccd1 vccd1 _0899_/X sky130_fd_sc_hd__clkbuf_1
XFILLER_58_39 vssd1 vssd1 vccd1 vccd1 sky130_fd_sc_hd__decap_12
XFILLER_74_106 vssd1 vssd1 vccd1 vccd1 sky130_fd_sc_hd__decap_8
XFILLER_74_139 vssd1 vssd1 vccd1 vccd1 sky130_fd_sc_hd__decap_12
XFILLER_67_180 vssd1 vssd1 vccd1 vccd1 sky130_fd_sc_hd__decap_12
XFILLER_130_11 vssd1 vssd1 vccd1 vccd1 sky130_fd_sc_hd__decap_12
XPHY_702 vssd1 vccd1 sky130_fd_sc_hd__tapvpwrvgnd_1
XFILLER_82_172 vssd1 vssd1 vccd1 vccd1 sky130_fd_sc_hd__decap_12
XFILLER_130_55 vssd1 vssd1 vccd1 vccd1 sky130_fd_sc_hd__fill_2
XPHY_713 vssd1 vccd1 sky130_fd_sc_hd__tapvpwrvgnd_1
XPHY_724 vssd1 vccd1 sky130_fd_sc_hd__tapvpwrvgnd_1
XPHY_735 vssd1 vccd1 sky130_fd_sc_hd__tapvpwrvgnd_1
XFILLER_70_367 vssd1 vssd1 vccd1 vccd1 sky130_fd_sc_hd__fill_1
XFILLER_70_378 vssd1 vssd1 vccd1 vccd1 sky130_fd_sc_hd__decap_4
XFILLER_90_15 vssd1 vssd1 vccd1 vccd1 sky130_fd_sc_hd__decap_12
XPHY_1323 vssd1 vccd1 sky130_fd_sc_hd__tapvpwrvgnd_1
XPHY_1312 vssd1 vccd1 sky130_fd_sc_hd__tapvpwrvgnd_1
XPHY_1301 vssd1 vccd1 sky130_fd_sc_hd__tapvpwrvgnd_1
XPHY_746 vssd1 vccd1 sky130_fd_sc_hd__tapvpwrvgnd_1
XPHY_757 vssd1 vccd1 sky130_fd_sc_hd__tapvpwrvgnd_1
XPHY_768 vssd1 vccd1 sky130_fd_sc_hd__tapvpwrvgnd_1
XFILLER_211_373 vssd1 vssd1 vccd1 vccd1 sky130_fd_sc_hd__decap_4
XFILLER_168_277 vssd1 vssd1 vccd1 vccd1 sky130_fd_sc_hd__decap_8
XFILLER_156_406 vssd1 vssd1 vccd1 vccd1 sky130_fd_sc_hd__fill_1
XFILLER_135_3 vssd1 vssd1 vccd1 vccd1 sky130_fd_sc_hd__decap_4
XPHY_1356 vssd1 vccd1 sky130_fd_sc_hd__tapvpwrvgnd_1
XPHY_1345 vssd1 vccd1 sky130_fd_sc_hd__tapvpwrvgnd_1
XPHY_1334 vssd1 vccd1 sky130_fd_sc_hd__tapvpwrvgnd_1
XFILLER_23_294 vssd1 vssd1 vccd1 vccd1 sky130_fd_sc_hd__decap_12
XFILLER_23_42 vssd1 vssd1 vccd1 vccd1 sky130_fd_sc_hd__decap_12
XPHY_779 vssd1 vccd1 sky130_fd_sc_hd__tapvpwrvgnd_1
XFILLER_183_225 vssd1 vssd1 vccd1 vccd1 sky130_fd_sc_hd__decap_12
XFILLER_139_42 vssd1 vssd1 vccd1 vccd1 sky130_fd_sc_hd__decap_12
XPHY_1389 vssd1 vccd1 sky130_fd_sc_hd__tapvpwrvgnd_1
XPHY_1378 vssd1 vccd1 sky130_fd_sc_hd__tapvpwrvgnd_1
XPHY_1367 vssd1 vccd1 sky130_fd_sc_hd__tapvpwrvgnd_1
XFILLER_183_258 vssd1 vssd1 vccd1 vccd1 sky130_fd_sc_hd__decap_12
XFILLER_151_111 vssd1 vssd1 vccd1 vccd1 sky130_fd_sc_hd__decap_12
XFILLER_136_163 vssd1 vssd1 vccd1 vccd1 sky130_fd_sc_hd__decap_8
XFILLER_155_30 vssd1 vssd1 vccd1 vccd1 sky130_fd_sc_hd__decap_12
XFILLER_151_144 vssd1 vssd1 vccd1 vccd1 sky130_fd_sc_hd__decap_12
XFILLER_136_196 vssd1 vssd1 vccd1 vccd1 sky130_fd_sc_hd__decap_12
XFILLER_2_110 vssd1 vssd1 vccd1 vccd1 sky130_fd_sc_hd__decap_4
XFILLER_48_94 vssd1 vssd1 vccd1 vccd1 sky130_fd_sc_hd__decap_12
XFILLER_64_82 vssd1 vssd1 vccd1 vccd1 sky130_fd_sc_hd__decap_12
XFILLER_61_367 vssd1 vssd1 vccd1 vccd1 sky130_fd_sc_hd__decap_4
XFILLER_159_255 vssd1 vssd1 vccd1 vccd1 sky130_fd_sc_hd__fill_2
XFILLER_9_66 vssd1 vssd1 vccd1 vccd1 sky130_fd_sc_hd__decap_12
XFILLER_202_395 vssd1 vssd1 vccd1 vccd1 sky130_fd_sc_hd__decap_4
XFILLER_9_99 vssd1 vssd1 vccd1 vccd1 sky130_fd_sc_hd__decap_12
X_0822_ _0822_/A _0822_/B _0822_/C _0822_/D vssd1 vssd1 vccd1 vccd1 _0827_/A sky130_fd_sc_hd__or4_4
XFILLER_80_70 vssd1 vssd1 vccd1 vccd1 sky130_fd_sc_hd__decap_12
XPHY_1890 vssd1 vccd1 sky130_fd_sc_hd__tapvpwrvgnd_1
XFILLER_196_70 vssd1 vssd1 vccd1 vccd1 sky130_fd_sc_hd__decap_8
X_0753_ _0544_/A _0753_/A2 _0545_/A _0753_/B2 _0752_/X vssd1 vssd1 vccd1 vccd1 _0753_/X
+ sky130_fd_sc_hd__a221o_1
X_0684_ _0651_/X _0684_/A2 _0681_/X _0683_/X vssd1 vssd1 vccd1 vccd1 _0684_/X sky130_fd_sc_hd__a211o_4
XFILLER_50_3 vssd1 vssd1 vccd1 vccd1 sky130_fd_sc_hd__decap_12
XFILLER_96_220 vssd1 vssd1 vccd1 vccd1 sky130_fd_sc_hd__decap_8
XFILLER_96_253 vssd1 vssd1 vccd1 vccd1 sky130_fd_sc_hd__decap_12
XFILLER_56_106 vssd1 vssd1 vccd1 vccd1 sky130_fd_sc_hd__decap_8
XFILLER_96_286 vssd1 vssd1 vccd1 vccd1 sky130_fd_sc_hd__decap_12
XFILLER_49_180 vssd1 vssd1 vccd1 vccd1 sky130_fd_sc_hd__decap_8
XFILLER_56_139 vssd1 vssd1 vccd1 vccd1 sky130_fd_sc_hd__decap_12
XFILLER_197_306 vssd1 vssd1 vccd1 vccd1 sky130_fd_sc_hd__decap_8
XFILLER_64_172 vssd1 vssd1 vccd1 vccd1 sky130_fd_sc_hd__decap_12
XFILLER_197_339 vssd1 vssd1 vccd1 vccd1 sky130_fd_sc_hd__decap_12
XFILLER_52_367 vssd1 vssd1 vccd1 vccd1 sky130_fd_sc_hd__decap_8
XFILLER_138_406 vssd1 vssd1 vccd1 vccd1 sky130_fd_sc_hd__fill_1
XFILLER_20_220 vssd1 vssd1 vccd1 vccd1 sky130_fd_sc_hd__decap_8
XFILLER_60_18 vssd1 vssd1 vccd1 vccd1 sky130_fd_sc_hd__decap_12
XFILLER_100_58 vssd1 vssd1 vccd1 vccd1 sky130_fd_sc_hd__decap_12
XFILLER_20_253 vssd1 vssd1 vccd1 vccd1 sky130_fd_sc_hd__decap_12
XFILLER_165_258 vssd1 vssd1 vccd1 vccd1 sky130_fd_sc_hd__decap_12
XFILLER_165_247 vssd1 vssd1 vccd1 vccd1 sky130_fd_sc_hd__decap_8
XFILLER_20_286 vssd1 vssd1 vccd1 vccd1 sky130_fd_sc_hd__decap_12
XFILLER_118_163 vssd1 vssd1 vccd1 vccd1 sky130_fd_sc_hd__decap_8
XFILLER_133_111 vssd1 vssd1 vccd1 vccd1 sky130_fd_sc_hd__decap_12
XFILLER_118_196 vssd1 vssd1 vccd1 vccd1 sky130_fd_sc_hd__decap_12
XFILLER_109_78 vssd1 vssd1 vccd1 vccd1 sky130_fd_sc_hd__decap_8
XFILLER_133_144 vssd1 vssd1 vccd1 vccd1 sky130_fd_sc_hd__decap_12
XFILLER_121_306 vssd1 vssd1 vccd1 vccd1 sky130_fd_sc_hd__decap_8
XFILLER_121_339 vssd1 vssd1 vccd1 vccd1 sky130_fd_sc_hd__decap_12